<?xml version="1.0" encoding="UTF-8"?>

<!-- generated on 2021-10-24 18:01:53 by Eclipse SUMO duarouter Version 1.9.2
<configuration xmlns:xsi="http://www.w3.org/2001/XMLSchema-instance" xsi:noNamespaceSchemaLocation="http://sumo.dlr.de/xsd/duarouterConfiguration.xsd">

    <input>
        <net-file value="C:\Users\uchih\Sumo\2021-10-24-18-01-46\osm.net.xml"/>
        <route-files value="C:\Users\uchih\Sumo\2021-10-24-18-01-46\osm.motorcycle.trips.xml"/>
    </input>

    <output>
        <output-file value="C:\Users\uchih\Sumo\2021-10-24-18-01-46\osm.motorcycle.trips.xml.tmp"/>
        <write-trips value="true"/>
    </output>

    <time>
        <begin value="0"/>
        <end value="3600"/>
    </time>

    <report>
        <no-warnings value="true"/>
        <ignore-errors value="true"/>
        <no-step-log value="true"/>
    </report>

</configuration>
-->

<routes xmlns:xsi="http://www.w3.org/2001/XMLSchema-instance" xsi:noNamespaceSchemaLocation="http://sumo.dlr.de/xsd/routes_file.xsd">
    <vType id="moto_motorcycle" vClass="motorcycle"/>
    <trip id="moto0" type="moto_motorcycle" depart="0.00" departLane="best" from="23584816#3" to="-191223392#3"/>
    <trip id="moto1" type="moto_motorcycle" depart="21.23" departLane="best" from="-29995454#3" to="-26783036"/>
    <trip id="moto2" type="moto_motorcycle" depart="42.46" departLane="best" from="26783035" to="23854506#4"/>
    <trip id="moto3" type="moto_motorcycle" depart="63.69" departLane="best" from="388181112#0" to="-192332019#0"/>
    <trip id="moto4" type="moto_motorcycle" depart="84.91" departLane="best" from="185271782#3" to="-191223392#5"/>
    <trip id="moto5" type="moto_motorcycle" depart="106.14" departLane="best" from="-26788755#6" to="192332016#1"/>
    <trip id="moto6" type="moto_motorcycle" depart="127.37" departLane="best" from="-191417883#0" to="-25901179#0"/>
    <trip id="moto7" type="moto_motorcycle" depart="148.60" departLane="best" from="23584818#2" to="192402866#0"/>
    <trip id="moto8" type="moto_motorcycle" depart="169.83" departLane="best" from="-26788755#7" to="192582821#1"/>
    <trip id="moto11" type="moto_motorcycle" depart="233.51" departLane="best" from="-388181113#0" to="-23584842#1"/>
    <trip id="moto13" type="moto_motorcycle" depart="275.97" departLane="best" from="-192332020#3" to="-192332020#4"/>
    <trip id="moto14" type="moto_motorcycle" depart="297.20" departLane="best" from="30002624" to="192582832#0"/>
    <trip id="moto16" type="moto_motorcycle" depart="339.66" departLane="best" from="192332021" to="620348242#2"/>
    <trip id="moto17" type="moto_motorcycle" depart="360.89" departLane="best" from="-620348241" to="192402867#1"/>
    <trip id="moto18" type="moto_motorcycle" depart="382.11" departLane="best" from="29995454#3" to="23584808#5"/>
    <trip id="moto19" type="moto_motorcycle" depart="403.34" departLane="best" from="30280177#3" to="192402876#1"/>
    <trip id="moto20" type="moto_motorcycle" depart="424.57" departLane="best" from="26608145" to="-192332008"/>
    <trip id="moto21" type="moto_motorcycle" depart="445.80" departLane="best" from="-192332017#0" to="-26788755#4"/>
    <trip id="moto22" type="moto_motorcycle" depart="467.03" departLane="best" from="-192402867#1" to="-29995187#2"/>
    <trip id="moto23" type="moto_motorcycle" depart="488.26" departLane="best" from="23584816#10" to="-579145838#1"/>
    <trip id="moto24" type="moto_motorcycle" depart="509.49" departLane="best" from="-496521322#1" to="-26702780#1"/>
    <trip id="moto25" type="moto_motorcycle" depart="530.72" departLane="best" from="-29995187#3" to="495300227#2"/>
    <trip id="moto26" type="moto_motorcycle" depart="551.94" departLane="best" from="23584818#1" to="23195148#1"/>
    <trip id="moto28" type="moto_motorcycle" depart="594.40" departLane="best" from="-23584855#2" to="-620362111#1"/>
    <trip id="moto29" type="moto_motorcycle" depart="615.63" departLane="best" from="620431735#0" to="23584818#2"/>
    <trip id="moto30" type="moto_motorcycle" depart="636.86" departLane="best" from="192402866#1" to="24830978#1"/>
    <trip id="moto31" type="moto_motorcycle" depart="658.09" departLane="best" from="30001419#2" to="28584583#1"/>
    <trip id="moto32" type="moto_motorcycle" depart="679.32" departLane="best" from="-26788967#4" to="-191417883#1"/>
    <trip id="moto33" type="moto_motorcycle" depart="700.54" departLane="best" from="-30281099#0" to="-28584583#1"/>
    <trip id="moto34" type="moto_motorcycle" depart="721.77" departLane="best" departSpeed="max" from="-26788686" to="495300229"/>
    <trip id="moto35" type="moto_motorcycle" depart="743.00" departLane="best" from="30281099#1" to="-30281025"/>
    <trip id="moto36" type="moto_motorcycle" depart="764.23" departLane="best" from="23584842#0" to="184899631"/>
    <trip id="moto37" type="moto_motorcycle" depart="785.46" departLane="best" from="-29995187#2" to="-26788967#3"/>
    <trip id="moto38" type="moto_motorcycle" depart="806.69" departLane="best" from="192402867#1" to="-26790555#1"/>
    <trip id="moto39" type="moto_motorcycle" depart="827.92" departLane="best" from="192402876#0" to="390224979#1"/>
    <trip id="moto40" type="moto_motorcycle" depart="849.14" departLane="best" from="150203420" to="-26777960#1"/>
    <trip id="moto41" type="moto_motorcycle" depart="870.37" departLane="best" from="685351473" to="192332017#1"/>
    <trip id="moto42" type="moto_motorcycle" depart="891.60" departLane="best" from="-192332020#2" to="-192332008"/>
    <trip id="moto43" type="moto_motorcycle" depart="912.83" departLane="best" from="-192402876#0" to="23584816#2"/>
    <trip id="moto44" type="moto_motorcycle" depart="934.06" departLane="best" from="26790555#1" to="191417883#0"/>
    <trip id="moto45" type="moto_motorcycle" depart="955.29" departLane="best" from="-192332013#4" to="-620362112#0"/>
    <trip id="moto46" type="moto_motorcycle" depart="976.52" departLane="best" from="681852368#0" to="192402863#0"/>
    <trip id="moto47" type="moto_motorcycle" depart="997.74" departLane="best" from="620348241" to="30281099#3"/>
    <trip id="moto48" type="moto_motorcycle" depart="1018.97" departLane="best" from="-190639996#1" to="26783154#2"/>
    <trip id="moto49" type="moto_motorcycle" depart="1040.20" departLane="best" from="23814219#4" to="192402863#5"/>
    <trip id="moto50" type="moto_motorcycle" depart="1061.43" departLane="best" from="-29995187#3" to="23584818#3"/>
    <trip id="moto51" type="moto_motorcycle" depart="1082.66" departLane="best" from="-192402876#1" to="191555579#2"/>
    <trip id="moto52" type="moto_motorcycle" depart="1103.89" departLane="best" from="191566811#2" to="619574786"/>
    <trip id="moto53" type="moto_motorcycle" depart="1125.12" departLane="best" from="30281099#0" to="-26790555#1"/>
    <trip id="moto54" type="moto_motorcycle" depart="1146.34" departLane="best" from="192332013#2" to="-23814219#3"/>
    <trip id="moto55" type="moto_motorcycle" depart="1167.57" departLane="best" from="390224979#0" to="380322204#1"/>
    <trip id="moto56" type="moto_motorcycle" depart="1188.80" departLane="best" from="-30280177#3" to="23584818#1"/>
    <trip id="moto57" type="moto_motorcycle" depart="1210.03" departLane="best" from="192582832#0" to="-23584818#4"/>
    <trip id="moto58" type="moto_motorcycle" depart="1231.26" departLane="best" from="26788834" to="192402863#7"/>
    <trip id="moto59" type="moto_motorcycle" depart="1252.49" departLane="best" from="26788971#1" to="192402863#1"/>
    <trip id="moto60" type="moto_motorcycle" depart="1273.72" departLane="best" from="-191223392#2" to="495300224#1"/>
    <trip id="moto61" type="moto_motorcycle" depart="1294.94" departLane="best" from="30281099#2" to="30280177#1"/>
    <trip id="moto62" type="moto_motorcycle" depart="1316.17" departLane="best" from="-30281028#2" to="-192332012#4"/>
    <trip id="moto63" type="moto_motorcycle" depart="1337.40" departLane="best" from="30281099#2" to="579145838#0"/>
    <trip id="moto64" type="moto_motorcycle" depart="1358.63" departLane="best" from="-192332018#1" to="192332013#2"/>
    <trip id="moto65" type="moto_motorcycle" depart="1379.86" departLane="best" departSpeed="max" from="26788967#0" to="-23195148#2"/>
    <trip id="moto66" type="moto_motorcycle" depart="1401.09" departLane="best" from="192251292#1" to="192402867#0"/>
    <trip id="moto67" type="moto_motorcycle" depart="1422.32" departLane="best" from="-29995187#2" to="380322204#2"/>
    <trip id="moto69" type="moto_motorcycle" depart="1464.77" departLane="best" departSpeed="max" from="-26783033" to="-30280177#4"/>
    <trip id="moto70" type="moto_motorcycle" depart="1486.00" departLane="best" from="681852368#0" to="23584842#3"/>
    <trip id="moto71" type="moto_motorcycle" depart="1507.23" departLane="best" from="191417883#1" to="192332019#1"/>
    <trip id="moto72" type="moto_motorcycle" depart="1528.46" departLane="best" from="-192582832#2" to="-26783036"/>
    <trip id="moto73" type="moto_motorcycle" depart="1549.69" departLane="best" from="-26788967#4" to="-26783035"/>
    <trip id="moto74" type="moto_motorcycle" depart="1570.92" departLane="best" from="-192332014" to="23584816#4"/>
    <trip id="moto75" type="moto_motorcycle" depart="1592.15" departLane="best" from="-26788967#3" to="390239911#1"/>
    <trip id="moto76" type="moto_motorcycle" depart="1613.37" departLane="best" from="30280177#2" to="-192332014"/>
    <trip id="moto77" type="moto_motorcycle" depart="1634.60" departLane="best" from="-26789044#1" to="23814219#4"/>
    <trip id="moto78" type="moto_motorcycle" depart="1655.83" departLane="best" from="-26788755#1" to="-23584816#1"/>
    <trip id="moto79" type="moto_motorcycle" depart="1677.06" departLane="best" from="495300225#0" to="192402875#0"/>
    <trip id="moto80" type="moto_motorcycle" depart="1698.29" departLane="best" from="192251292#0" to="29994986"/>
    <trip id="moto82" type="moto_motorcycle" depart="1740.75" departLane="best" from="-192332023#1" to="191555578#2"/>
    <trip id="moto83" type="moto_motorcycle" depart="1761.97" departLane="best" from="190639996#0" to="192332009#1"/>
    <trip id="moto84" type="moto_motorcycle" depart="1783.20" departLane="best" from="26777961" to="23854506#1"/>
    <trip id="moto85" type="moto_motorcycle" depart="1804.43" departLane="best" from="620362111#0" to="-192332023#1"/>
    <trip id="moto86" type="moto_motorcycle" depart="1825.66" departLane="best" from="184720392#1" to="-388181112#1"/>
    <trip id="moto87" type="moto_motorcycle" depart="1846.89" departLane="best" from="30280177#3" to="-26788967#4"/>
    <trip id="moto88" type="moto_motorcycle" depart="1868.12" departLane="best" from="-25901179#1" to="191742018#4"/>
    <trip id="moto89" type="moto_motorcycle" depart="1889.35" departLane="best" from="185271782#3" to="-29995187#3"/>
    <trip id="moto90" type="moto_motorcycle" depart="1910.57" departLane="best" from="-26790555#0" to="483248307#1"/>
    <trip id="moto91" type="moto_motorcycle" depart="1931.80" departLane="best" from="192402863#7" to="-192332011"/>
    <trip id="moto92" type="moto_motorcycle" depart="1953.03" departLane="best" from="685351475" to="30280177#3"/>
    <trip id="moto93" type="moto_motorcycle" depart="1974.26" departLane="best" from="620348237#2" to="495300224#0"/>
    <trip id="moto94" type="moto_motorcycle" depart="1995.49" departLane="best" from="30002872" to="-23584855#3"/>
    <trip id="moto95" type="moto_motorcycle" depart="2016.72" departLane="best" from="192332010#2" to="-26702781#1"/>
    <trip id="moto96" type="moto_motorcycle" depart="2037.95" departLane="best" from="184720392#0" to="-192332012#5"/>
    <trip id="moto97" type="moto_motorcycle" depart="2059.17" departLane="best" from="-620348241" to="620431735#2"/>
    <trip id="moto98" type="moto_motorcycle" depart="2080.40" departLane="best" from="-29995187#2" to="29994986"/>
    <trip id="moto99" type="moto_motorcycle" depart="2101.63" departLane="best" from="191566811#3" to="191417883#1"/>
    <trip id="moto101" type="moto_motorcycle" depart="2144.09" departLane="best" from="192402866#0" to="26783154#0"/>
    <trip id="moto102" type="moto_motorcycle" depart="2165.32" departLane="best" from="-23584842#1" to="-30002624"/>
    <trip id="moto103" type="moto_motorcycle" depart="2186.55" departLane="best" from="620348237#2" to="192402876#2"/>
    <trip id="moto104" type="moto_motorcycle" depart="2207.77" departLane="best" from="192402863#3" to="26788967#4"/>
    <trip id="moto105" type="moto_motorcycle" depart="2229.00" departLane="best" from="-192332013#0" to="192582820#1"/>
    <trip id="moto106" type="moto_motorcycle" depart="2250.23" departLane="best" from="192332013#3" to="30281099#0"/>
    <trip id="moto107" type="moto_motorcycle" depart="2271.46" departLane="best" from="-23584842#4" to="619575918#3"/>
    <trip id="moto108" type="moto_motorcycle" depart="2292.69" departLane="best" from="-192332017#0" to="-23854506#1"/>
    <trip id="moto109" type="moto_motorcycle" depart="2313.92" departLane="best" from="192582821#0" to="23854506#2"/>
    <trip id="moto110" type="moto_motorcycle" depart="2335.15" departLane="best" from="-26788971#1" to="-192602084"/>
    <trip id="moto111" type="moto_motorcycle" depart="2356.37" departLane="best" from="380322204#2" to="-26788967#2"/>
    <trip id="moto112" type="moto_motorcycle" depart="2377.60" departLane="best" from="192582821#0" to="23584808#5"/>
    <trip id="moto113" type="moto_motorcycle" depart="2398.83" departLane="best" from="185271782#1" to="192582820#1"/>
    <trip id="moto114" type="moto_motorcycle" depart="2420.06" departLane="best" from="192332018#1" to="495300225#1"/>
    <trip id="moto115" type="moto_motorcycle" depart="2441.29" departLane="best" departSpeed="max" from="-26783033" to="26783034"/>
    <trip id="moto116" type="moto_motorcycle" depart="2462.52" departLane="best" from="-26789044#1" to="184899631"/>
    <trip id="moto117" type="moto_motorcycle" depart="2483.75" departLane="best" departSpeed="max" from="23814219#0" to="-30014767"/>
    <trip id="moto118" type="moto_motorcycle" depart="2504.98" departLane="best" from="-30281099#0" to="26788971#1"/>
    <trip id="moto119" type="moto_motorcycle" depart="2526.20" departLane="best" from="-192332015#0" to="192251292#0"/>
    <trip id="moto120" type="moto_motorcycle" depart="2547.43" departLane="best" from="685351475" to="681852369"/>
    <trip id="moto121" type="moto_motorcycle" depart="2568.66" departLane="best" from="-192332015#0" to="-26702781#1"/>
    <trip id="moto122" type="moto_motorcycle" depart="2589.89" departLane="best" from="-29995187#2" to="495300225#1"/>
    <trip id="moto123" type="moto_motorcycle" depart="2611.12" departLane="best" from="30281206" to="388181112#3"/>
    <trip id="moto124" type="moto_motorcycle" depart="2632.35" departLane="best" from="-496521322#1" to="-23584842#2"/>
    <trip id="moto125" type="moto_motorcycle" depart="2653.58" departLane="best" from="192582832#1" to="621117646#1"/>
    <trip id="moto126" type="moto_motorcycle" depart="2674.80" departLane="best" from="23584842#0" to="-184899633#2"/>
    <trip id="moto127" type="moto_motorcycle" depart="2696.03" departLane="best" from="29995187#3" to="-30014767"/>
    <trip id="moto128" type="moto_motorcycle" depart="2717.26" departLane="best" from="23584855#1" to="495300227#3"/>
    <trip id="moto129" type="moto_motorcycle" depart="2738.49" departLane="best" from="-23584816#10" to="-192582821#0"/>
    <trip id="moto130" type="moto_motorcycle" depart="2759.72" departLane="best" from="-192402872#1" to="192402868#0"/>
    <trip id="moto131" type="moto_motorcycle" depart="2780.95" departLane="best" from="26702781#2" to="-25901179#2"/>
    <trip id="moto132" type="moto_motorcycle" depart="2802.18" departLane="best" from="23584816#1" to="-26790555#1"/>
    <trip id="moto133" type="moto_motorcycle" depart="2823.40" departLane="best" from="192332012#0" to="390239911#1"/>
    <trip id="moto134" type="moto_motorcycle" depart="2844.63" departLane="best" from="30002623" to="-192332020#2"/>
    <trip id="moto135" type="moto_motorcycle" depart="2865.86" departLane="best" from="190639996#0" to="-29995187#2"/>
    <trip id="moto136" type="moto_motorcycle" depart="2887.09" departLane="best" from="-184899633#2" to="26790555#1"/>
    <trip id="moto137" type="moto_motorcycle" depart="2908.32" departLane="best" from="23584816#2" to="-26790555#0"/>
    <trip id="moto138" type="moto_motorcycle" depart="2929.55" departLane="best" departSpeed="max" from="26783036" to="192402867#1"/>
    <trip id="moto139" type="moto_motorcycle" depart="2950.78" departLane="best" from="191223392#0" to="-185271782#0"/>
    <trip id="moto140" type="moto_motorcycle" depart="2972.00" departLane="best" from="-192332015#2" to="388181113#0"/>
    <trip id="moto141" type="moto_motorcycle" depart="2993.23" departLane="best" from="-23584818#2" to="-23195148#2"/>
    <trip id="moto142" type="moto_motorcycle" depart="3014.46" departLane="best" from="28584583#0" to="30281099#3"/>
    <trip id="moto143" type="moto_motorcycle" depart="3035.69" departLane="best" from="-26790555#0" to="-192402868#0"/>
    <trip id="moto144" type="moto_motorcycle" depart="3056.92" departLane="best" from="26788973" to="388181113#1"/>
    <trip id="moto145" type="moto_motorcycle" depart="3078.15" departLane="best" from="184899631" to="23584808#7"/>
    <trip id="moto146" type="moto_motorcycle" depart="3099.38" departLane="best" from="-23584842#1" to="495300224#2"/>
    <trip id="moto147" type="moto_motorcycle" depart="3120.60" departLane="best" from="30281025" to="620360242"/>
    <trip id="moto148" type="moto_motorcycle" depart="3141.83" departLane="best" from="29994986" to="388181112#3"/>
    <trip id="moto149" type="moto_motorcycle" depart="3163.06" departLane="best" from="-191223392#5" to="26788755#5"/>
    <trip id="moto150" type="moto_motorcycle" depart="3184.29" departLane="best" from="-388181112#1" to="495300224#2"/>
    <trip id="moto151" type="moto_motorcycle" depart="3205.52" departLane="best" from="28584583#3" to="32067750#1"/>
    <trip id="moto152" type="moto_motorcycle" depart="3226.75" departLane="best" from="29994986" to="-28584583#0"/>
    <trip id="moto153" type="moto_motorcycle" depart="3247.98" departLane="best" from="26789046#1" to="-192402872#1"/>
    <trip id="moto154" type="moto_motorcycle" depart="3269.20" departLane="best" from="30281028#1" to="30281099#3"/>
    <trip id="moto155" type="moto_motorcycle" depart="3290.43" departLane="best" from="-26788834" to="30001419#1"/>
    <trip id="moto156" type="moto_motorcycle" depart="3311.66" departLane="best" from="191742018#1" to="-30280177#0"/>
    <trip id="moto157" type="moto_motorcycle" depart="3332.89" departLane="best" from="26790555#2" to="-26783154#2"/>
    <trip id="moto158" type="moto_motorcycle" depart="3354.12" departLane="best" from="-191223392#4" to="-23854506#6"/>
    <trip id="moto159" type="moto_motorcycle" depart="3375.35" departLane="best" from="-380322204#1" to="32067750#1"/>
    <trip id="moto160" type="moto_motorcycle" depart="3396.58" departLane="best" from="620348237#1" to="-29995187#3"/>
    <trip id="moto161" type="moto_motorcycle" depart="3417.81" departLane="best" from="23584816#4" to="185271782#1"/>
    <trip id="moto162" type="moto_motorcycle" depart="3439.03" departLane="best" from="620360243#2" to="192402863#5"/>
    <trip id="moto163" type="moto_motorcycle" depart="3460.26" departLane="best" from="495300227#1" to="-192582821#0"/>
    <trip id="moto164" type="moto_motorcycle" depart="3481.49" departLane="best" from="620348241" to="-23814219#3"/>
    <trip id="moto166" type="moto_motorcycle" depart="3523.95" departLane="best" from="-192402876#0" to="191555579#2"/>
    <trip id="moto167" type="moto_motorcycle" depart="3545.18" departLane="best" from="26777960#1" to="-30281025"/>
    <trip id="moto168" type="moto_motorcycle" depart="3566.41" departLane="best" from="192582830" to="192332018#0"/>
    <trip id="moto169" type="moto_motorcycle" depart="3587.63" departLane="best" from="-620348242#3" to="192402876#1"/>
</routes>
