<?xml version="1.0" encoding="UTF-8"?>

<!-- generated on 2021-10-24 18:01:48 by Eclipse SUMO netconvert Version 1.9.2
<configuration xmlns:xsi="http://www.w3.org/2001/XMLSchema-instance" xsi:noNamespaceSchemaLocation="http://sumo.dlr.de/xsd/netconvertConfiguration.xsd">

    <input>
        <type-files value="C:\Program%20Files%20(x86)\Eclipse\Sumo\data\typemap\osmNetconvert.typ.xml"/>
        <osm-files value="osm_bbox.osm.xml"/>
    </input>

    <output>
        <output-file value="osm.net.xml"/>
        <output.street-names value="true"/>
        <output.original-names value="true"/>
    </output>

    <projection>
        <proj.utm value="true"/>
    </projection>

    <processing>
        <geometry.remove value="true"/>
        <roundabouts.guess value="true"/>
    </processing>

    <tls_building>
        <tls.discard-simple value="true"/>
        <tls.join value="true"/>
        <tls.guess-signals value="true"/>
        <tls.default-type value="actuated"/>
    </tls_building>

    <ramp_guessing>
        <ramps.guess value="true"/>
    </ramp_guessing>

    <junctions>
        <junctions.join value="true"/>
        <junctions.corner-detail value="5"/>
    </junctions>

    <report>
        <verbose value="true"/>
        <aggregate-warnings value="5"/>
    </report>

</configuration>
-->

<net version="1.9" junctionCornerDetail="5" limitTurnSpeed="5.50" xmlns:xsi="http://www.w3.org/2001/XMLSchema-instance" xsi:noNamespaceSchemaLocation="http://sumo.dlr.de/xsd/net_file.xsd">

    <location netOffset="-652211.04,-4944139.53" convBoundary="0.00,0.00,2452.42,1489.95" origBoundary="10.919348,44.634191,10.950322,44.647588" projParameter="+proj=utm +zone=32 +ellps=WGS84 +datum=WGS84 +units=m +no_defs"/>

    <type id="highway.bridleway" priority="1" numLanes="1" speed="2.78" allow="pedestrian" oneway="1" width="2.00"/>
    <type id="highway.bus_guideway" priority="1" numLanes="1" speed="27.78" allow="bus" oneway="1"/>
    <type id="highway.cycleway" priority="1" numLanes="1" speed="8.33" allow="bicycle" oneway="0" width="1.00"/>
    <type id="highway.footway" priority="1" numLanes="1" speed="2.78" allow="pedestrian" oneway="1" width="2.00"/>
    <type id="highway.ford" priority="1" numLanes="1" speed="2.78" allow="army" oneway="0"/>
    <type id="highway.living_street" priority="2" numLanes="1" speed="2.78" disallow="tram rail_urban rail rail_electric rail_fast ship" oneway="0"/>
    <type id="highway.motorway" priority="14" numLanes="2" speed="39.44" allow="private emergency authority army vip passenger hov taxi bus coach delivery truck trailer motorcycle evehicle custom1 custom2" oneway="1"/>
    <type id="highway.motorway_link" priority="9" numLanes="1" speed="22.22" allow="private emergency authority army vip passenger hov taxi bus coach delivery truck trailer motorcycle evehicle custom1 custom2" oneway="1"/>
    <type id="highway.path" priority="1" numLanes="1" speed="2.78" allow="pedestrian bicycle" oneway="0" width="2.00"/>
    <type id="highway.pedestrian" priority="1" numLanes="1" speed="2.78" allow="pedestrian" oneway="1" width="2.00"/>
    <type id="highway.primary" priority="12" numLanes="2" speed="27.78" disallow="tram rail_urban rail rail_electric rail_fast ship" oneway="0"/>
    <type id="highway.primary_link" priority="7" numLanes="1" speed="22.22" disallow="tram rail_urban rail rail_electric rail_fast ship" oneway="0"/>
    <type id="highway.raceway" priority="15" numLanes="2" speed="83.33" allow="vip" oneway="0"/>
    <type id="highway.residential" priority="3" numLanes="1" speed="13.89" disallow="tram rail_urban rail rail_electric rail_fast ship" oneway="0"/>
    <type id="highway.secondary" priority="11" numLanes="1" speed="27.78" disallow="tram rail_urban rail rail_electric rail_fast ship" oneway="0"/>
    <type id="highway.secondary_link" priority="6" numLanes="1" speed="22.22" disallow="tram rail_urban rail rail_electric rail_fast ship" oneway="0"/>
    <type id="highway.service" priority="1" numLanes="1" speed="5.56" allow="pedestrian delivery bicycle" oneway="0"/>
    <type id="highway.stairs" priority="1" numLanes="1" speed="1.39" allow="pedestrian" oneway="1" width="2.00"/>
    <type id="highway.step" priority="1" numLanes="1" speed="1.39" allow="pedestrian" oneway="1" width="2.00"/>
    <type id="highway.steps" priority="1" numLanes="1" speed="1.39" allow="pedestrian" oneway="1" width="2.00"/>
    <type id="highway.tertiary" priority="10" numLanes="1" speed="22.22" disallow="tram rail_urban rail rail_electric rail_fast ship" oneway="0"/>
    <type id="highway.tertiary_link" priority="5" numLanes="1" speed="22.22" disallow="tram rail_urban rail rail_electric rail_fast ship" oneway="0"/>
    <type id="highway.track" priority="1" numLanes="1" speed="5.56" allow="pedestrian motorcycle moped bicycle" oneway="0"/>
    <type id="highway.trunk" priority="13" numLanes="2" speed="27.78" disallow="pedestrian bicycle tram rail_urban rail rail_electric rail_fast ship" oneway="0"/>
    <type id="highway.trunk_link" priority="8" numLanes="1" speed="22.22" disallow="pedestrian bicycle tram rail_urban rail rail_electric rail_fast ship" oneway="0"/>
    <type id="highway.unclassified" priority="4" numLanes="1" speed="13.89" disallow="tram rail_urban rail rail_electric rail_fast ship" oneway="0"/>
    <type id="highway.unsurfaced" priority="1" numLanes="1" speed="8.33" disallow="tram rail_urban rail rail_electric rail_fast ship" oneway="0"/>
    <type id="railway.highspeed" priority="21" numLanes="1" speed="69.44" allow="rail_fast" oneway="1"/>
    <type id="railway.light_rail" priority="19" numLanes="1" speed="27.78" allow="rail_urban" oneway="1"/>
    <type id="railway.preserved" priority="16" numLanes="1" speed="27.78" allow="rail" oneway="1"/>
    <type id="railway.rail" priority="20" numLanes="1" speed="44.44" allow="rail" oneway="1"/>
    <type id="railway.subway" priority="18" numLanes="1" speed="27.78" allow="rail_urban" oneway="1"/>
    <type id="railway.tram" priority="17" numLanes="1" speed="13.89" allow="tram" oneway="1"/>

    <edge id=":121942029_0" function="internal">
        <lane id=":121942029_0_0" index="0" disallow="tram rail_urban rail rail_electric rail_fast ship" speed="3.65" length="4.67" shape="2319.26,336.92 2320.66,337.27 2321.30,337.89 2321.20,338.78 2320.33,339.94"/>
    </edge>
    <edge id=":1344478852_0" function="internal">
        <lane id=":1344478852_0_0" index="0" disallow="tram rail_urban rail rail_electric rail_fast ship" speed="6.44" length="3.97" shape="835.57,782.87 838.75,785.24"/>
    </edge>
    <edge id=":1344478852_1" function="internal">
        <lane id=":1344478852_1_0" index="0" allow="pedestrian bus delivery bicycle" speed="13.89" length="1.60" shape="836.83,784.64 836.36,783.11"/>
    </edge>
    <edge id=":1344478923_0" function="internal">
        <lane id=":1344478923_0_0" index="0" allow="pedestrian bicycle" speed="4.23" length="5.34" shape="834.90,797.53 833.92,796.12 832.98,795.62 832.08,796.03 831.22,797.35"/>
    </edge>
    <edge id=":1344478923_1" function="internal">
        <lane id=":1344478923_1_0" index="0" allow="pedestrian bicycle" speed="2.78" length="12.27" width="2.00" shape="834.90,797.53 829.21,786.67"/>
    </edge>
    <edge id=":1344478923_2" function="internal">
        <lane id=":1344478923_2_0" index="0" allow="pedestrian bicycle" speed="2.78" length="2.92" width="2.00" shape="834.90,797.53 834.99,796.64 835.31,796.18 835.87,796.16 836.66,796.59"/>
    </edge>
    <edge id=":1344478923_3" function="internal">
        <lane id=":1344478923_3_0" index="0" allow="pedestrian bicycle" speed="7.86" length="10.00" width="2.00" shape="836.96,787.25 835.70,789.22 835.23,791.44 835.55,793.89 836.66,796.59"/>
    </edge>
    <edge id=":1344478923_4" function="internal">
        <lane id=":1344478923_4_0" index="0" disallow="tram rail_urban rail rail_electric rail_fast ship" speed="13.89" length="11.94" shape="836.96,787.25 834.78,789.92 833.58,791.96 832.63,794.17 831.22,797.35"/>
        <lane id=":1344478923_4_1" index="1" disallow="tram rail_urban rail rail_electric rail_fast ship" speed="13.89" length="11.94" shape="834.29,785.44 832.04,788.23 830.78,790.36 829.80,792.66 828.33,795.97"/>
    </edge>
    <edge id=":1344478923_6" function="internal">
        <lane id=":1344478923_6_0" index="0" allow="pedestrian bicycle" speed="5.02" length="6.38" width="2.00" shape="834.29,785.44 832.62,787.05 831.21,787.79 830.07,787.67 829.21,786.67"/>
    </edge>
    <edge id=":1344478923_7" function="internal">
        <lane id=":1344478923_7_0" index="0" allow="pedestrian bicycle" speed="2.78" length="12.22" width="2.00" shape="830.99,785.76 836.66,796.59"/>
    </edge>
    <edge id=":1344478923_8" function="internal">
        <lane id=":1344478923_8_0" index="0" allow="pedestrian bicycle" speed="8.33" length="10.76" shape="830.99,785.76 831.25,787.24 830.90,789.43 829.92,792.34 828.33,795.97"/>
    </edge>
    <edge id=":1344478923_9" function="internal">
        <lane id=":1344478923_9_0" index="0" allow="pedestrian bicycle" speed="2.78" length="2.92" width="2.00" shape="830.99,785.76 830.89,786.65 830.55,787.10 830.00,787.11 829.21,786.67"/>
    </edge>
    <edge id=":144807110_0" function="internal">
        <lane id=":144807110_0_0" index="0" disallow="tram rail_urban rail rail_electric rail_fast ship" speed="13.89" length="14.73" shape="1115.18,328.81 1112.31,326.47 1109.36,324.31 1106.29,322.32 1103.07,320.47"/>
    </edge>
    <edge id=":144807110_1" function="internal">
        <lane id=":144807110_1_0" index="0" disallow="tram rail_urban rail rail_electric rail_fast ship" speed="7.75" length="12.10" shape="1115.18,328.81 1113.56,326.71 1113.11,324.19 1113.82,321.24 1115.68,317.87"/>
    </edge>
    <edge id=":144807110_2" function="internal">
        <lane id=":144807110_2_0" index="0" disallow="tram rail_urban rail rail_electric rail_fast ship" speed="3.65" length="4.67" shape="1115.18,328.81 1114.79,327.43 1115.01,326.56 1115.84,326.21 1117.27,326.39"/>
    </edge>
    <edge id=":144807110_3" function="internal">
        <lane id=":144807110_3_0" index="0" disallow="tram rail_urban rail rail_electric rail_fast ship" speed="6.94" length="9.58" shape="1104.59,317.66 1107.14,318.64 1109.39,318.71 1111.36,317.85 1113.04,316.06"/>
    </edge>
    <edge id=":144807110_4" function="internal">
        <lane id=":144807110_4_0" index="0" disallow="tram rail_urban rail rail_electric rail_fast ship" speed="13.89" length="15.42" shape="1104.59,317.66 1107.90,319.56 1111.16,321.69 1114.31,323.98 1117.27,326.39"/>
    </edge>
    <edge id=":144807110_5" function="internal">
        <lane id=":144807110_5_0" index="0" disallow="tram rail_urban rail rail_electric rail_fast ship" speed="3.65" length="4.67" shape="1104.59,317.66 1105.27,318.93 1105.24,319.82 1104.51,320.34 1103.07,320.47"/>
    </edge>
    <edge id=":144807110_6" function="internal">
        <lane id=":144807110_6_0" index="0" disallow="tram rail_urban rail rail_electric rail_fast ship" speed="6.30" length="9.06" shape="1104.88,328.01 1106.00,325.74 1106.07,323.73 1105.09,321.97 1103.07,320.47"/>
    </edge>
    <edge id=":144807110_7" function="internal">
        <lane id=":144807110_7_0" index="0" disallow="tram rail_urban rail rail_electric rail_fast ship" speed="22.22" length="14.47" shape="1104.88,328.01 1113.04,316.06"/>
        <lane id=":144807110_7_1" index="1" disallow="tram rail_urban rail rail_electric rail_fast ship" speed="22.22" length="14.47" shape="1107.52,329.81 1115.68,317.87"/>
    </edge>
    <edge id=":144807110_9" function="internal">
        <lane id=":144807110_9_0" index="0" disallow="tram rail_urban rail rail_electric rail_fast ship" speed="7.11" length="11.94" shape="1107.52,329.81 1110.04,326.81 1112.50,325.24 1114.91,325.10 1117.27,326.39"/>
    </edge>
    <edge id=":144807114_0" function="internal">
        <lane id=":144807114_0_0" index="0" disallow="tram rail_urban rail rail_electric rail_fast ship" speed="7.59" length="9.84" shape="935.78,563.28 938.88,564.01 941.43,564.05 943.43,563.38 944.89,562.02"/>
    </edge>
    <edge id=":144807114_1" function="internal">
        <lane id=":144807114_1_0" index="0" disallow="tram rail_urban rail rail_electric rail_fast ship" speed="17.02" length="10.28" shape="937.53,567.89 940.03,566.53 941.74,565.53 943.19,564.24 944.89,562.02"/>
        <lane id=":144807114_1_1" index="1" disallow="tram rail_urban rail rail_electric rail_fast ship" speed="18.23" length="10.28" shape="939.13,570.67 941.99,569.09 943.93,567.91 945.58,566.40 947.52,563.83"/>
    </edge>
    <edge id=":144807116_0" function="internal">
        <lane id=":144807116_0_0" index="0" disallow="tram rail_urban rail rail_electric rail_fast ship" speed="14.94" length="6.40" shape="931.87,572.33 933.14,570.69 934.23,569.74 935.50,569.00 937.36,567.99"/>
        <lane id=":144807116_0_1" index="1" disallow="tram rail_urban rail rail_electric rail_fast ship" speed="13.40" length="6.40" shape="934.49,574.16 935.53,572.86 936.41,572.13 937.46,571.56 938.95,570.77"/>
    </edge>
    <edge id=":144807116_2" function="internal">
        <lane id=":144807116_2_0" index="0" disallow="tram rail_urban rail rail_electric rail_fast ship" speed="8.83" length="5.35" shape="937.12,575.99 938.09,574.78 938.96,574.14 940.02,573.75 941.55,573.30"/>
    </edge>
    <edge id=":1560211601_0" function="internal">
        <lane id=":1560211601_0_0" index="0" allow="pedestrian delivery bicycle" speed="5.04" length="5.00" shape="1716.64,153.61 1715.45,152.92 1714.33,152.78 1713.27,153.18 1712.28,154.13"/>
    </edge>
    <edge id=":1560211601_1" function="internal">
        <lane id=":1560211601_1_0" index="0" allow="pedestrian delivery bicycle" speed="5.56" length="9.43" shape="1716.64,153.61 1709.23,147.77"/>
    </edge>
    <edge id=":1560211601_2" function="internal">
        <lane id=":1560211601_2_0" index="0" allow="pedestrian delivery bicycle" speed="5.56" length="10.19" shape="1716.64,153.61 1714.72,151.60 1713.90,149.44 1714.18,147.15 1715.56,144.72"/>
    </edge>
    <edge id=":1560211601_3" function="internal">
        <lane id=":1560211601_3_0" index="0" allow="pedestrian delivery bicycle" speed="3.65" length="4.67" shape="1716.64,153.61 1716.19,152.24 1716.37,151.36 1717.18,150.98 1718.62,151.09"/>
    </edge>
    <edge id=":1560211601_4" function="internal">
        <lane id=":1560211601_4_0" index="0" allow="pedestrian delivery bicycle" speed="5.09" length="5.07" shape="1718.09,146.67 1717.40,147.88 1717.26,149.02 1717.67,150.09 1718.62,151.09"/>
    </edge>
    <edge id=":1560211601_5" function="internal">
        <lane id=":1560211601_5_0" index="0" allow="pedestrian delivery bicycle" speed="5.56" length="9.46" shape="1718.09,146.67 1712.28,154.13"/>
    </edge>
    <edge id=":1560211601_6" function="internal">
        <lane id=":1560211601_6_0" index="0" allow="pedestrian delivery bicycle" speed="5.56" length="10.22" shape="1718.09,146.67 1716.09,148.62 1713.94,149.46 1711.65,149.18 1709.23,147.77"/>
    </edge>
    <edge id=":1560211601_7" function="internal">
        <lane id=":1560211601_7_0" index="0" allow="pedestrian delivery bicycle" speed="3.65" length="4.67" shape="1718.09,146.67 1716.73,147.13 1715.85,146.96 1715.46,146.15 1715.56,144.72"/>
    </edge>
    <edge id=":1560211601_8" function="internal">
        <lane id=":1560211601_8_0" index="0" allow="pedestrian delivery bicycle" speed="5.03" length="5.01" shape="1711.20,145.26 1712.40,145.95 1713.52,146.09 1714.57,145.68 1715.56,144.72"/>
    </edge>
    <edge id=":1560211601_9" function="internal">
        <lane id=":1560211601_9_0" index="0" allow="pedestrian delivery bicycle" speed="5.56" length="9.43" shape="1711.20,145.26 1718.62,151.09"/>
    </edge>
    <edge id=":1560211601_10" function="internal">
        <lane id=":1560211601_10_0" index="0" allow="pedestrian delivery bicycle" speed="5.56" length="10.19" shape="1711.20,145.26 1713.14,147.28 1713.96,149.44 1713.68,151.72 1712.28,154.13"/>
    </edge>
    <edge id=":1560211601_11" function="internal">
        <lane id=":1560211601_11_0" index="0" allow="pedestrian delivery bicycle" speed="3.65" length="4.67" shape="1711.20,145.26 1711.65,146.63 1711.47,147.51 1710.66,147.89 1709.23,147.77"/>
    </edge>
    <edge id=":1560211601_12" function="internal">
        <lane id=":1560211601_12_0" index="0" allow="pedestrian delivery bicycle" speed="5.05" length="5.03" shape="1709.77,152.15 1710.45,150.96 1710.59,149.84 1710.18,148.77 1709.23,147.77"/>
    </edge>
    <edge id=":1560211601_13" function="internal">
        <lane id=":1560211601_13_0" index="0" allow="pedestrian delivery bicycle" speed="5.56" length="9.42" shape="1709.77,152.15 1715.56,144.72"/>
    </edge>
    <edge id=":1560211601_14" function="internal">
        <lane id=":1560211601_14_0" index="0" allow="pedestrian delivery bicycle" speed="5.56" length="10.16" shape="1709.77,152.15 1711.79,150.23 1713.93,149.41 1716.21,149.70 1718.62,151.09"/>
    </edge>
    <edge id=":1560211601_15" function="internal">
        <lane id=":1560211601_15_0" index="0" allow="pedestrian delivery bicycle" speed="3.65" length="4.67" shape="1709.77,152.15 1711.14,151.70 1712.02,151.88 1712.40,152.69 1712.28,154.13"/>
    </edge>
    <edge id=":1560211607_0" function="internal">
        <lane id=":1560211607_0_0" index="0" allow="pedestrian delivery bicycle" speed="3.65" length="4.67" shape="2122.04,169.94 2122.26,168.51 2122.82,167.81 2123.72,167.84 2124.94,168.60"/>
    </edge>
    <edge id=":1560211620_0" function="internal">
        <lane id=":1560211620_0_0" index="0" allow="pedestrian delivery bicycle" speed="3.65" length="4.67" shape="2112.64,193.26 2113.69,192.27 2114.56,192.06 2115.25,192.63 2115.75,193.98"/>
    </edge>
    <edge id=":1560211628_0" function="internal">
        <lane id=":1560211628_0_0" index="0" allow="pedestrian delivery bicycle" speed="5.56" length="6.20" shape="1786.06,208.24 1781.19,204.40"/>
    </edge>
    <edge id=":1560211628_1" function="internal">
        <lane id=":1560211628_1_0" index="0" allow="pedestrian delivery bicycle" speed="5.56" length="7.80" shape="1786.06,208.24 1785.22,207.07 1785.19,205.54 1785.97,203.64 1787.56,201.36"/>
    </edge>
    <edge id=":1560211628_2" function="internal">
        <lane id=":1560211628_2_0" index="0" allow="pedestrian delivery bicycle" speed="3.65" length="4.67" shape="1786.06,208.24 1785.61,206.87 1785.79,205.99 1786.60,205.61 1788.04,205.72"/>
    </edge>
    <edge id=":1560211628_3" function="internal">
        <lane id=":1560211628_3_0" index="0" allow="pedestrian delivery bicycle" speed="5.07" length="5.02" shape="1783.17,201.89 1784.35,202.57 1785.47,202.71 1786.54,202.31 1787.56,201.36"/>
    </edge>
    <edge id=":1560211628_4" function="internal">
        <lane id=":1560211628_4_0" index="0" allow="pedestrian delivery bicycle" speed="5.56" length="6.20" shape="1783.17,201.89 1788.04,205.72"/>
    </edge>
    <edge id=":1560211628_5" function="internal">
        <lane id=":1560211628_5_0" index="0" allow="pedestrian delivery bicycle" speed="3.65" length="4.67" shape="1783.17,201.89 1783.62,203.26 1783.44,204.14 1782.63,204.52 1781.19,204.40"/>
    </edge>
    <edge id=":1560211633_0" function="internal">
        <lane id=":1560211633_0_0" index="0" allow="pedestrian delivery bicycle" speed="5.56" length="6.62" shape="1820.67,235.46 1815.47,231.37"/>
    </edge>
    <edge id=":1560211633_1" function="internal">
        <lane id=":1560211633_1_0" index="0" allow="pedestrian delivery bicycle" speed="3.65" length="4.67" shape="1820.67,235.46 1820.22,234.09 1820.40,233.22 1821.21,232.83 1822.65,232.95"/>
    </edge>
    <edge id=":1560211633_2" function="internal">
        <lane id=":1560211633_2_0" index="0" allow="pedestrian delivery bicycle" speed="5.56" length="6.01" shape="1821.46,227.34 1821.25,229.22 1821.38,230.78 1821.85,232.03 1822.65,232.95"/>
    </edge>
    <edge id=":1560211633_3" function="internal">
        <lane id=":1560211633_3_0" index="0" allow="pedestrian delivery bicycle" speed="5.56" length="9.49" shape="1821.46,227.34 1820.56,230.46 1819.26,232.17 1817.56,232.47 1815.47,231.37"/>
    </edge>
    <edge id=":1560211633_4" function="internal">
        <lane id=":1560211633_4_0" index="0" allow="pedestrian delivery bicycle" speed="5.56" length="6.62" shape="1817.45,228.86 1822.65,232.95"/>
    </edge>
    <edge id=":1560211633_5" function="internal">
        <lane id=":1560211633_5_0" index="0" allow="pedestrian delivery bicycle" speed="3.65" length="4.67" shape="1817.45,228.86 1817.89,230.23 1817.71,231.10 1816.90,231.48 1815.47,231.37"/>
    </edge>
    <edge id=":1560211637_0" function="internal">
        <lane id=":1560211637_0_0" index="0" allow="pedestrian delivery bicycle" speed="5.56" length="6.20" shape="1835.54,247.16 1830.67,243.33"/>
    </edge>
    <edge id=":1560211637_1" function="internal">
        <lane id=":1560211637_1_0" index="0" allow="pedestrian delivery bicycle" speed="3.65" length="4.67" shape="1835.54,247.16 1835.09,245.79 1835.27,244.92 1836.08,244.53 1837.51,244.65"/>
    </edge>
    <edge id=":1560211637_2" function="internal">
        <lane id=":1560211637_2_0" index="0" allow="pedestrian delivery bicycle" speed="5.56" length="6.20" shape="1832.64,240.82 1837.51,244.65"/>
    </edge>
    <edge id=":1560211637_3" function="internal">
        <lane id=":1560211637_3_0" index="0" allow="pedestrian delivery bicycle" speed="3.65" length="4.67" shape="1832.64,240.82 1833.09,242.19 1832.91,243.06 1832.10,243.44 1830.67,243.33"/>
    </edge>
    <edge id=":1560211637_4" function="internal">
        <lane id=":1560211637_4_0" index="0" allow="pedestrian delivery bicycle" speed="5.03" length="5.01" shape="1831.17,247.69 1831.87,246.50 1832.01,245.38 1831.61,244.32 1830.67,243.33"/>
    </edge>
    <edge id=":1560211637_5" function="internal">
        <lane id=":1560211637_5_0" index="0" allow="pedestrian delivery bicycle" speed="5.56" length="7.75" shape="1831.17,247.69 1833.04,245.64 1834.72,244.46 1836.21,244.12 1837.51,244.65"/>
    </edge>
    <edge id=":1560211645_0" function="internal">
        <lane id=":1560211645_0_0" index="0" allow="pedestrian delivery bicycle" speed="9.72" length="10.98" shape="1815.40,262.48 1818.31,260.86 1820.44,259.78 1822.28,258.50 1824.33,256.28"/>
    </edge>
    <edge id=":1560211645_1" function="internal">
        <lane id=":1560211645_1_0" index="0" disallow="tram rail_urban rail rail_electric rail_fast ship" speed="6.86" length="6.37" shape="1817.07,265.20 1818.52,264.56 1820.01,264.36 1821.54,264.62 1823.11,265.34"/>
    </edge>
    <edge id=":1560211649_0" function="internal">
        <lane id=":1560211649_0_0" index="0" allow="pedestrian delivery bicycle" speed="5.42" length="4.68" shape="1829.56,264.08 1828.99,265.18 1828.82,266.27 1829.06,267.34 1829.71,268.40"/>
    </edge>
    <edge id=":1560211649_1" function="internal">
        <lane id=":1560211649_1_0" index="0" disallow="tram rail_urban rail rail_electric rail_fast ship" speed="13.89" length="6.44" shape="1823.28,265.44 1824.77,266.55 1825.53,267.61 1826.15,268.82 1827.23,270.41"/>
    </edge>
    <edge id=":1560211654_0" function="internal">
        <lane id=":1560211654_0_0" index="0" allow="pedestrian delivery bicycle" speed="5.56" length="9.65" shape="1879.21,281.54 1871.63,275.57"/>
    </edge>
    <edge id=":1560211654_1" function="internal">
        <lane id=":1560211654_1_0" index="0" allow="pedestrian delivery bicycle" speed="5.56" length="11.63" shape="1879.21,281.54 1876.92,279.13 1876.18,276.76 1877.00,274.40 1879.38,272.08"/>
    </edge>
    <edge id=":1560211654_2" function="internal">
        <lane id=":1560211654_2_0" index="0" allow="pedestrian delivery bicycle" speed="3.65" length="4.67" shape="1879.21,281.54 1878.76,280.17 1878.94,279.29 1879.75,278.91 1881.19,279.02"/>
    </edge>
    <edge id=":1560211654_3" function="internal">
        <lane id=":1560211654_3_0" index="0" allow="pedestrian delivery bicycle" speed="4.80" length="5.36" shape="1881.27,274.66 1880.17,275.73 1879.79,276.82 1880.13,277.92 1881.19,279.02"/>
    </edge>
    <edge id=":1560211654_4" function="internal">
        <lane id=":1560211654_4_0" index="0" allow="pedestrian delivery bicycle" speed="5.56" length="10.46" shape="1881.27,274.66 1878.57,276.25 1876.06,276.94 1873.75,276.71 1871.63,275.57"/>
    </edge>
    <edge id=":1560211654_5" function="internal">
        <lane id=":1560211654_5_0" index="0" allow="pedestrian delivery bicycle" speed="3.65" length="4.67" shape="1881.27,274.66 1879.83,274.73 1879.03,274.32 1878.88,273.43 1879.38,272.08"/>
    </edge>
    <edge id=":1560211654_6" function="internal">
        <lane id=":1560211654_6_0" index="0" allow="pedestrian delivery bicycle" speed="5.56" length="6.28" shape="1873.61,273.06 1874.77,273.63 1876.12,273.65 1877.66,273.14 1879.38,272.08"/>
    </edge>
    <edge id=":1560211654_7" function="internal">
        <lane id=":1560211654_7_0" index="0" allow="pedestrian delivery bicycle" speed="5.56" length="9.65" shape="1873.61,273.06 1881.19,279.02"/>
    </edge>
    <edge id=":1560211654_8" function="internal">
        <lane id=":1560211654_8_0" index="0" allow="pedestrian delivery bicycle" speed="3.65" length="4.67" shape="1873.61,273.06 1874.06,274.43 1873.88,275.31 1873.07,275.69 1871.63,275.57"/>
    </edge>
    <edge id=":1560211673_0" function="internal">
        <lane id=":1560211673_0_0" index="0" allow="pedestrian delivery bicycle" speed="5.56" length="6.54" shape="2007.08,314.62 2005.57,313.74 2004.07,313.45 2002.57,313.75 2001.07,314.64"/>
    </edge>
    <edge id=":1560211673_1" function="internal">
        <lane id=":1560211673_1_0" index="0" allow="pedestrian delivery bicycle" speed="5.56" length="10.34" shape="2007.08,314.62 2004.70,312.76 2003.05,311.38 2001.49,309.90 1999.37,307.75"/>
    </edge>
    <edge id=":1560211673_2" function="internal">
        <lane id=":1560211673_2_0" index="0" allow="pedestrian delivery bicycle" speed="5.56" length="10.72" shape="2007.08,314.62 2005.01,312.47 2004.20,310.24 2004.67,307.91 2006.42,305.49"/>
    </edge>
    <edge id=":1560211673_3" function="internal">
        <lane id=":1560211673_3_0" index="0" allow="pedestrian delivery bicycle" speed="3.65" length="4.67" shape="2007.08,314.62 2006.62,313.25 2006.79,312.37 2007.60,311.98 2009.04,312.08"/>
    </edge>
    <edge id=":1560211673_4" function="internal">
        <lane id=":1560211673_4_0" index="0" allow="pedestrian delivery bicycle" speed="4.93" length="5.14" shape="2008.72,307.71 2007.88,308.87 2007.66,309.99 2008.04,311.06 2009.04,312.08"/>
    </edge>
    <edge id=":1560211673_5" function="internal">
        <lane id=":1560211673_5_0" index="0" allow="pedestrian delivery bicycle" speed="5.56" length="10.33" shape="2008.72,307.71 2006.61,309.88 2005.07,311.36 2003.43,312.76 2001.07,314.64"/>
    </edge>
    <edge id=":1560211673_6" function="internal">
        <lane id=":1560211673_6_0" index="0" allow="pedestrian delivery bicycle" speed="5.56" length="10.73" shape="2008.72,307.71 2006.39,309.53 2004.05,310.14 2001.71,309.55 1999.37,307.75"/>
    </edge>
    <edge id=":1560211673_7" function="internal">
        <lane id=":1560211673_7_0" index="0" allow="pedestrian delivery bicycle" speed="3.65" length="4.67" shape="2008.72,307.71 2007.31,308.02 2006.46,307.75 2006.16,306.91 2006.42,305.49"/>
    </edge>
    <edge id=":1560211673_8" function="internal">
        <lane id=":1560211673_8_0" index="0" allow="pedestrian delivery bicycle" speed="5.18" length="5.46" shape="2001.66,305.52 2002.85,306.43 2004.04,306.73 2005.23,306.41 2006.42,305.49"/>
    </edge>
    <edge id=":1560211673_9" function="internal">
        <lane id=":1560211673_9_0" index="0" allow="pedestrian delivery bicycle" speed="5.56" length="9.89" shape="2001.66,305.52 2003.72,307.61 2005.18,308.99 2006.72,310.28 2009.04,312.08"/>
    </edge>
    <edge id=":1560211673_10" function="internal">
        <lane id=":1560211673_10_0" index="0" allow="pedestrian delivery bicycle" speed="5.56" length="10.70" shape="2001.66,305.52 2003.41,307.92 2003.90,310.24 2003.12,312.48 2001.07,314.64"/>
    </edge>
    <edge id=":1560211673_11" function="internal">
        <lane id=":1560211673_11_0" index="0" allow="pedestrian delivery bicycle" speed="3.65" length="4.67" shape="2001.66,305.52 2001.93,306.93 2001.63,307.78 2000.78,308.05 1999.37,307.75"/>
    </edge>
    <edge id=":1560211673_12" function="internal">
        <lane id=":1560211673_12_0" index="0" allow="pedestrian delivery bicycle" speed="4.93" length="5.13" shape="1999.09,312.13 2000.07,311.09 2000.45,310.02 2000.21,308.90 1999.37,307.75"/>
    </edge>
    <edge id=":1560211673_13" function="internal">
        <lane id=":1560211673_13_0" index="0" allow="pedestrian delivery bicycle" speed="5.56" length="9.90" shape="1999.09,312.13 2001.39,310.30 2002.92,308.99 2004.37,307.60 2006.42,305.49"/>
    </edge>
    <edge id=":1560211673_14" function="internal">
        <lane id=":1560211673_14_0" index="0" allow="pedestrian delivery bicycle" speed="5.56" length="10.83" shape="1999.09,312.13 2001.57,310.66 2004.05,310.16 2006.54,310.64 2009.04,312.08"/>
    </edge>
    <edge id=":1560211673_15" function="internal">
        <lane id=":1560211673_15_0" index="0" allow="pedestrian delivery bicycle" speed="3.65" length="4.67" shape="1999.09,312.13 2000.53,312.01 2001.34,312.39 2001.52,313.27 2001.07,314.64"/>
    </edge>
    <edge id=":1560216991_0" function="internal">