<?xml version="1.0" encoding="UTF-8"?>

<!-- generated on 2021-10-24 18:01:50 by Eclipse SUMO duarouter Version 1.9.2
<configuration xmlns:xsi="http://www.w3.org/2001/XMLSchema-instance" xsi:noNamespaceSchemaLocation="http://sumo.dlr.de/xsd/duarouterConfiguration.xsd">

    <input>
        <net-file value="C:\Users\uchih\Sumo\2021-10-24-18-01-46\osm.net.xml"/>
        <route-files value="C:\Users\uchih\Sumo\2021-10-24-18-01-46\osm.passenger.trips.xml"/>
    </input>

    <output>
        <output-file value="C:\Users\uchih\Sumo\2021-10-24-18-01-46\osm.passenger.trips.xml.tmp"/>
        <write-trips value="true"/>
    </output>

    <time>
        <begin value="0"/>
        <end value="3600"/>
    </time>

    <report>
        <no-warnings value="true"/>
        <ignore-errors value="true"/>
        <no-step-log value="true"/>
    </report>

</configuration>
<vType id="type_ambulance" length="4.80" minGap="0.05" speedFactor="normc(1.50,0.00)" vClass="emergency" guiShape="emergency" color="red" latAlignment="left" lcStrategic="100" lcCooperative="0.0" lcSpeedGain="100" lcKeepRight="100" lcPushy="1" lcAssertive="1" lcAccelLat="5000" jmDriveAfterRedTime="1000" accel="3.3" decel="5" sigma="0.5">
        <param key="has.bluelight.device" value="true"/>
    </vType>
-->

<routes xmlns:xsi="http://www.w3.org/2001/XMLSchema-instance" xsi:noNamespaceSchemaLocation="http://sumo.dlr.de/xsd/routes_file.xsd">
    <vType id="veh_passenger" vClass="passenger"/>
    <vType id="emergency" vClass="emergency" guiShape='emergency'>
    	<param key="has.bluelight.device" value="true"/>
    </vType>
    <trip id="veh0" type="veh_passenger" depart="0.00" departLane="best" departSpeed="max" from="25901179#0" to="-185271782#0"/>
    <trip id="veh1" type="veh_passenger" depart="0.57" departLane="best" departSpeed="max" from="-30281029" to="-26783154#2"/>
    <trip id="veh2" type="veh_passenger" depart="1.13" departLane="best" departSpeed="max" from="26788967#0" to="26789044#2"/>
    <trip id="veh3" type="veh_passenger" depart="1.70" departLane="best" departSpeed="max" from="390020634" to="-23195148#0"/>
    <trip id="veh4" type="veh_passenger" depart="2.26" departLane="best" departSpeed="max" from="184899633#0" to="-185271782#0"/>
    <trip id="veh5" type="veh_passenger" depart="2.83" departLane="best" departSpeed="max" from="-29995187#4" to="192332023#1"/>
    <trip id="veh6" type="veh_passenger" depart="3.40" departLane="best" from="-191742018#1" to="-26702781#0"/>
    <trip id="veh7" type="veh_passenger" depart="3.96" departLane="best" departSpeed="max" from="25901179#0" to="192582821#1"/>
    <trip id="veh8" type="veh_passenger" depart="4.53" departLane="best" from="-29995454#2" to="23680396"/>
    <trip id="veh9" type="veh_passenger" depart="5.09" departLane="best" from="29995187#2" to="-184899633#0"/>
    <trip id="veh11" type="veh_passenger" depart="6.23" departLane="best" departSpeed="max" from="-451455823#3" to="-24830978#0"/>
    <trip id="veh12" type="veh_passenger" depart="6.79" departLane="best" departSpeed="max" from="620348237#0" to="-496521322#1"/>
    <trip id="veh13" type="veh_passenger" depart="7.36" departLane="best" from="-192582832#2" to="-23195148#0"/>
    <trip id="veh14" type="veh_passenger" depart="7.93" departLane="best" departSpeed="max" from="30018078#0" to="23854506#2"/>
    <trip id="veh15" type="veh_passenger" depart="8.49" departLane="best" from="29994986" to="29995454#0"/>
    <trip id="veh16" type="veh_passenger" depart="9.06" departLane="best" from="192402863#7" to="681852368#1"/>
    <trip id="veh17" type="veh_passenger" depart="9.62" departLane="best" departSpeed="max" from="-681852368#1" to="192582821#1"/>
    <trip id="veh18" type="veh_passenger" depart="10.19" departLane="best" departSpeed="max" from="29995566#0" to="26777963"/>
    <trip id="veh19" type="veh_passenger" depart="10.76" departLane="best" departSpeed="max" from="30281028#0" to="23584842#0"/>
    <trip id="veh20" type="veh_passenger" depart="11.32" departLane="best" departSpeed="max" from="26783036" to="-192251292#0"/>
    <trip id="veh21" type="veh_passenger" depart="11.89" departLane="best" departSpeed="max" from="-30001419#3" to="-30018078#1"/>
    <trip id="veh22" type="veh_passenger" depart="12.45" departLane="best" departSpeed="max" from="-192582821#1" to="-26788967#0"/>
    <trip id="veh23" type="veh_passenger" depart="13.02" departLane="best" from="-23584816#8" to="-29995566#1"/>
    <trip id="veh24" type="veh_passenger" depart="13.59" departLane="best" from="23854506#4" to="-620362112#0"/>
    <trip id="veh25" type="veh_passenger" depart="14.15" departLane="best" from="-620348242#0" to="-26783036"/>
    <trip id="veh26" type="veh_passenger" depart="14.72" departLane="best" departSpeed="max" from="-30281029" to="619574786"/>
    <trip id="veh27" type="veh_passenger" depart="15.28" departLane="best" departSpeed="max" from="-26789044#2" to="29995453#2"/>
    <trip id="veh28" type="veh_passenger" depart="15.85" departLane="best" departSpeed="max" from="620362112#0" to="26788685#1"/>
    <trip id="veh29" type="veh_passenger" depart="16.42" departLane="best" from="192582820#0" to="26790546"/>
    <trip id="veh30" type="veh_passenger" depart="16.98" departLane="best" departSpeed="max" from="30018078#0" to="30281028#3"/>
    <trip id="veh31" type="veh_passenger" depart="17.55" departLane="best" from="-388181276#1" to="-29995566#1"/>
    <trip id="veh32" type="veh_passenger" depart="18.12" departLane="best" departSpeed="max" from="-29995187#4" to="619574787"/>
    <trip id="veh33" type="veh_passenger" depart="18.68" departLane="best" from="32067750#1" to="-30281028#0"/>
    <trip id="veh34" type="veh_passenger" depart="19.25" departLane="best" from="26608145" to="190640003#1"/>
    <trip id="veh35" type="veh_passenger" depart="19.81" departLane="best" departSpeed="max" from="-30281029" to="-26788969"/>
    <trip id="veh36" type="veh_passenger" depart="20.38" departLane="best" from="192582829#1" to="-29995454#5"/>
    <trip id="veh37" type="veh_passenger" depart="20.95" departLane="best" from="23584808#5" to="483248307#1"/>
    <trip id="veh38" type="veh_passenger" depart="21.51" departLane="best" departSpeed="max" from="-681852369" to="-26783036"/>
    <trip id="veh39" type="veh_passenger" depart="22.08" departLane="best" from="621117646#1" to="192402863#3"/>
    <trip id="veh40" type="veh_passenger" depart="22.64" departLane="best" departSpeed="max" from="-192582821#1" to="-192332008"/>
    <trip id="veh41" type="veh_passenger" depart="23.21" departLane="best" from="-23584855#1" to="26783033"/>
    <trip id="veh44" type="veh_passenger" depart="24.91" departLane="best" from="620431735#2" to="192402875#0"/>
    <trip id="veh45" type="veh_passenger" depart="25.47" departLane="best" departSpeed="max" from="-190640003#2" to="29995187#4"/>
    <trip id="veh46" type="veh_passenger" depart="26.04" departLane="best" departSpeed="max" from="26702781#0" to="192582820#0"/>
    <trip id="veh47" type="veh_passenger" depart="26.61" departLane="best" departSpeed="max" from="-30281029" to="26788685#2"/>
    <trip id="veh48" type="veh_passenger" depart="27.17" departLane="best" from="32067750#1" to="-29995566#1"/>
    <trip id="veh49" type="veh_passenger" depart="27.74" departLane="best" from="192332011" to="-26702780#0"/>
    <trip id="veh50" type="veh_passenger" depart="28.30" departLane="best" departSpeed="max" from="390020634" to="451455823#3"/>
    <trip id="veh51" type="veh_passenger" depart="28.87" departLane="best" departSpeed="max" from="-388181112#3" to="26788685#1"/>
    <trip id="veh52" type="veh_passenger" depart="29.44" departLane="best" departSpeed="max" from="23683467#0" to="-23854506#4"/>
    <trip id="veh53" type="veh_passenger" depart="30.00" departLane="best" departSpeed="max" from="26789046#0" to="192582821#1"/>
    <trip id="veh55" type="veh_passenger" depart="31.14" departLane="best" from="-184899631" to="-388181112#0"/>
    <trip id="veh56" type="veh_passenger" depart="31.70" departLane="best" departSpeed="max" from="-190640003#2" to="619574786"/>
    <trip id="veh57" type="veh_passenger" depart="32.27" departLane="best" from="32067750#2" to="388181112#3"/>
    <trip id="veh58" type="veh_passenger" depart="32.83" departLane="best" from="32067750#2" to="619575918#3"/>
    <trip id="veh59" type="veh_passenger" depart="33.40" departLane="best" departSpeed="max" from="-192582821#1" to="192332013#6"/>
    <trip id="veh60" type="veh_passenger" depart="33.97" departLane="best" from="-192332023#1" to="30281028#2"/>
    <trip id="veh62" type="veh_passenger" depart="35.10" departLane="best" departSpeed="max" from="191555574" to="192582821#1"/>
    <trip id="veh64" type="veh_passenger" depart="36.23" departLane="best" departSpeed="max" from="184899633#0" to="-26783036"/>
    <trip id="veh65" type="veh_passenger" depart="36.80" departLane="best" from="192402866#1" to="29995454#0"/>
    <trip id="veh66" type="veh_passenger" depart="37.36" departLane="best" from="-28584583#2" to="-30281028#0"/>
    <trip id="veh68" type="veh_passenger" depart="38.49" departLane="best" departSpeed="max" from="185271782#0" to="192402865"/>
    <trip id="veh69" type="veh_passenger" depart="39.06" departLane="best" from="-25901179#1" to="-26788755#2"/>
    <trip id="veh70" type="veh_passenger" depart="39.63" departLane="best" departSpeed="max" from="-30001419#3" to="-26783036"/>
    <trip id="veh71" type="veh_passenger" depart="40.19" departLane="best" from="-192402867#0" to="26783033"/>
    <trip id="veh72" type="veh_passenger" depart="40.76" departLane="best" departSpeed="max" from="-30001419#3" to="483248307#1"/>
    <trip id="veh73" type="veh_passenger" depart="41.33" departLane="best" departSpeed="max" from="30281028#0" to="-192332020#3"/>
    <trip id="veh74" type="veh_passenger" depart="41.89" departLane="best" departSpeed="max" from="-30001419#3" to="26789044#2"/>
    <trip id="veh75" type="veh_passenger" depart="42.46" departLane="best" from="495300227#1" to="23584816#4"/>
    <trip id="veh76" type="veh_passenger" depart="43.02" departLane="best" departSpeed="max" from="191555574" to="30281029"/>
    <trip id="veh77" type="veh_passenger" depart="43.59" departLane="best" from="29995187#0" to="-26702781#0"/>
    <trip id="veh78" type="veh_passenger" depart="44.16" departLane="best" from="-23584816#0" to="191555579#1"/>
    <trip id="veh79" type="veh_passenger" depart="44.72" departLane="best" departSpeed="max" from="184899633#0" to="192332012#3"/>
    <trip id="veh80" type="veh_passenger" depart="45.29" departLane="best" departSpeed="max" from="620362112#0" to="-23195148#0"/>
    <trip id="veh81" type="veh_passenger" depart="45.85" departLane="best" departSpeed="max" from="-681852369" to="-579145838#2"/>
    <trip id="veh82" type="veh_passenger" depart="46.42" departLane="best" departSpeed="max" from="30281028#0" to="-26788971#1"/>
    <trip id="veh83" type="veh_passenger" depart="46.99" departLane="best" departSpeed="max" from="-26790546" to="192251290#2"/>
    <trip id="veh84" type="veh_passenger" depart="47.55" departLane="best" departSpeed="max" from="184899633#0" to="-30001419#1"/>
    <trip id="veh85" type="veh_passenger" depart="48.12" departLane="best" departSpeed="max" from="-30281028#3" to="495300228"/>
    <trip id="veh86" type="veh_passenger" depart="48.68" departLane="best" from="185271782#2" to="435838966#0"/>
    <trip id="veh87" type="veh_passenger" depart="49.25" departLane="best" from="192402875#1" to="-192332012#2"/>
    <trip id="veh88" type="veh_passenger" depart="49.82" departLane="best" from="685351475" to="388181113#0"/>
    <trip id="veh89" type="veh_passenger" depart="50.38" departLane="best" departSpeed="max" from="30018078#0" to="-25901179#0"/>
    <trip id="veh90" type="veh_passenger" depart="50.95" departLane="best" from="191566811#2" to="-26783036"/>
    <trip id="veh91" type="veh_passenger" depart="51.51" departLane="best" departSpeed="max" from="-681852369" to="-192332013#3"/>
    <trip id="veh92" type="veh_passenger" depart="52.08" departLane="best" departSpeed="max" from="191555574" to="191223392#3"/>
    <trip id="veh93" type="veh_passenger" depart="52.65" departLane="best" departSpeed="max" from="620348237#0" to="681852369"/>
    <trip id="veh94" type="veh_passenger" depart="53.21" departLane="best" from="192402876#3" to="29995187#4"/>
    <trip id="veh95" type="veh_passenger" depart="53.78" departLane="best" departSpeed="max" from="-26788686" to="-30018078#1"/>
    <trip id="veh96" type="veh_passenger" depart="54.35" departLane="best" from="620348242#0" to="23584842#2"/>
    <trip id="veh97" type="veh_passenger" depart="54.91" departLane="best" from="192402868#0" to="30001419#3"/>
    <trip id="veh98" type="veh_passenger" depart="55.48" departLane="best" departSpeed="max" from="-192332013#6" to="23680396"/>
    <trip id="veh99" type="veh_passenger" depart="56.04" departLane="best" from="192332012#2" to="390239911#1"/>
    <trip id="veh100" type="veh_passenger" depart="56.61" departLane="best" from="-26788755#1" to="620360243#2"/>
    <trip id="veh102" type="veh_passenger" depart="57.74" departLane="best" departSpeed="max" from="390020634" to="-26788967#4"/>
    <trip id="veh103" type="veh_passenger" depart="58.31" departLane="best" departSpeed="max" from="184899633#0" to="23680396"/>
    <trip id="veh104" type="veh_passenger" depart="58.87" departLane="best" from="192332020#3" to="619574786"/>
    <trip id="veh105" type="veh_passenger" depart="59.44" departLane="best" from="-30002624" to="190640003#1"/>
    <trip id="veh106" type="veh_passenger" depart="60.01" departLane="best" departSpeed="max" from="26702781#0" to="-30280177#4"/>
    <trip id="veh107" type="veh_passenger" depart="60.57" departLane="best" departSpeed="max" from="-390239911#1" to="30002623"/>
    <trip id="veh108" type="veh_passenger" depart="61.14" departLane="best" departSpeed="max" from="-30281029" to="619574786"/>
    <trip id="veh109" type="veh_passenger" depart="61.70" departLane="best" from="32067750#3" to="475542980#1"/>
    <trip id="veh110" type="veh_passenger" depart="62.27" departLane="best" from="-620348242#0" to="-25901179#0"/>
    <trip id="veh111" type="veh_passenger" depart="62.84" departLane="best" from="30001419#2" to="28584583#2"/>
    <trip id="veh112" type="veh_passenger" depart="63.40" departLane="best" departSpeed="max" from="23683467#0" to="681852369"/>
    <trip id="veh113" type="veh_passenger" depart="63.97" departLane="best" from="29995455#0" to="-30280177#3"/>
    <trip id="veh114" type="veh_passenger" depart="64.53" departLane="best" departSpeed="max" from="-26783033" to="-23584855#2"/>
    <trip id="veh115" type="veh_passenger" depart="65.10" departLane="best" from="-23584842#1" to="192582821#1"/>
    <trip id="veh116" type="veh_passenger" depart="65.67" departLane="best" departSpeed="max" from="-30281029" to="23854506#5"/>
    <trip id="veh117" type="veh_passenger" depart="66.23" departLane="best" departSpeed="max" from="26788683" to="-26702781#0"/>
    <trip id="veh118" type="veh_passenger" depart="66.80" departLane="best" from="23854506#1" to="-29995566#1"/>
    <trip id="veh119" type="veh_passenger" depart="67.37" departLane="best" from="191742018#1" to="483248307#1"/>
    <trip id="veh120" type="veh_passenger" depart="67.93" departLane="best" departSpeed="max" from="30018078#0" to="-23195148#0"/>
    <trip id="veh121" type="veh_passenger" depart="68.50" departLane="best" departSpeed="max" from="184899633#0" to="-29995566#1"/>
    <trip id="veh122" type="veh_passenger" depart="69.06" departLane="best" from="-185271782#2" to="30281028#3"/>
    <trip id="veh123" type="veh_passenger" depart="69.63" departLane="best" from="23854506#6" to="-29995454#4"/>
    <trip id="veh124" type="veh_passenger" depart="70.20" departLane="best" departSpeed="max" from="26788967#0" to="192582821#1"/>
    <trip id="veh125" type="veh_passenger" depart="70.76" departLane="best" departSpeed="max" from="390020634" to="192582821#1"/>
    <trip id="veh127" type="veh_passenger" depart="71.89" departLane="best" departSpeed="max" from="-388181112#3" to="483248307#1"/>
    <trip id="veh128" type="veh_passenger" depart="72.46" departLane="best" departSpeed="max" from="390020634" to="-26783036"/>
    <trip id="veh129" type="veh_passenger" depart="73.03" departLane="best" departSpeed="max" from="-30281028#3" to="-23584816#10"/>
    <trip id="veh131" type="veh_passenger" depart="74.16" departLane="best" departSpeed="max" from="-26788686" to="619574786"/>
    <trip id="veh132" type="veh_passenger" depart="74.72" departLane="best" departSpeed="max" from="30281028#0" to="681852368#1"/>
    <trip id="veh133" type="veh_passenger" depart="75.29" departLane="best" from="29995452#0" to="475542980#1"/>
    <trip id="veh134" type="veh_passenger" depart="75.86" departLane="best" from="-191417883#1" to="30001419#3"/>
    <trip id="veh135" type="veh_passenger" depart="76.42" departLane="best" departSpeed="max" from="-451455823#3" to="619574786"/>
    <trip id="veh137" type="veh_passenger" depart="77.56" departLane="best" from="29995452#0" to="-29995566#1"/>
    <trip id="veh139" type="veh_passenger" depart="78.69" departLane="best" from="30281099#0" to="390239911#1"/>
    <trip id="veh140" type="veh_passenger" depart="79.25" departLane="best" from="-29995454#5" to="380322204#0"/>
    <trip id="veh141" type="veh_passenger" depart="79.82" departLane="best" departSpeed="max" from="191555574" to="-30281028#0"/>
    <trip id="veh143" type="veh_passenger" depart="80.95" departLane="best" from="-191223392#5" to="-26702781#0"/>
    <trip id="veh145" type="veh_passenger" depart="82.08" departLane="best" from="620348237#2" to="-30001419#2"/>
    <trip id="veh146" type="veh_passenger" depart="82.65" departLane="best" departSpeed="max" from="25901179#0" to="190640003#1"/>
    <trip id="veh147" type="veh_passenger" depart="83.22" departLane="best" departSpeed="max" from="620362112#0" to="192402876#3"/>
    <trip id="veh148" type="veh_passenger" depart="83.78" departLane="best" from="620348242#1" to="-26702780#0"/>
    <trip id="veh149" type="veh_passenger" depart="84.35" departLane="best" departSpeed="max" from="620348237#0" to="-29995566#1"/>
    <trip id="veh150" type="veh_passenger" depart="84.91" departLane="best" from="-23584842#4" to="191742018#0"/>
    <trip id="veh151" type="veh_passenger" depart="85.48" departLane="best" from="26788685#2" to="-30281028#0"/>
    <trip id="veh152" type="veh_passenger" depart="86.05" departLane="best" departSpeed="max" from="23683467#0" to="192402863#4"/>
    <trip id="veh153" type="veh_passenger" depart="86.61" departLane="best" departSpeed="max" from="-681852368#1" to="23584818#4"/>
    <trip id="veh154" type="veh_passenger" depart="87.18" departLane="best" from="-184899633#2" to="496521322#1"/>
    <trip id="veh155" type="veh_passenger" depart="87.74" departLane="best" from="192402865" to="29995187#4"/>
    <trip id="veh156" type="veh_passenger" depart="88.31" departLane="best" departSpeed="max" from="26788967#0" to="26789044#2"/>
    <trip id="veh157" type="veh_passenger" depart="88.88" departLane="best" from="-495300224#2" to="-192332020#2"/>
    <trip id="veh159" type="veh_passenger" depart="90.01" departLane="best" from="-388181113#2" to="390239911#1"/>
    <trip id="veh160" type="veh_passenger" depart="90.58" departLane="best" departSpeed="max" from="26788683" to="-30280177#4"/>
    <trip id="veh161" type="veh_passenger" depart="91.14" departLane="best" departSpeed="max" from="-388181112#3" to="190640003#1"/>
    <trip id="veh162" type="veh_passenger" depart="91.71" departLane="best" departSpeed="max" from="-681852369" to="-30018078#1"/>
    <trip id="veh163" type="veh_passenger" depart="92.27" departLane="best" departSpeed="max" from="-26783033" to="190640003#1"/>
    <trip id="veh164" type="veh_passenger" depart="92.84" departLane="best" from="495300228" to="26789044#2"/>
    <trip id="veh165" type="veh_passenger" depart="93.41" departLane="best" departSpeed="max" from="-388181112#3" to="192582821#1"/>
    <trip id="veh166" type="veh_passenger" depart="93.97" departLane="best" from="-184899631" to="-30018078#1"/>
    <trip id="veh167" type="veh_passenger" depart="94.54" departLane="best" departSpeed="max" from="185271782#0" to="23584842#3"/>
    <trip id="veh168" type="veh_passenger" depart="95.10" departLane="best" from="25901179#2" to="192332012#0"/>
    <trip id="veh169" type="veh_passenger" depart="95.67" departLane="best" from="185271782#1" to="-26783036"/>
    <trip id="veh170" type="veh_passenger" depart="96.24" departLane="best" departSpeed="max" from="191555574" to="483248307#1"/>
    <trip id="veh172" type="veh_passenger" depart="97.37" departLane="best" departSpeed="max" from="-192582821#1" to="192402863#7"/>
    <trip id="veh173" type="veh_passenger" depart="97.93" departLane="best" from="23814219#5" to="-495300224#2"/>
    <trip id="veh174" type="veh_passenger" depart="98.50" departLane="best" departSpeed="max" from="29995566#0" to="30001419#3"/>
    <trip id="veh175" type="veh_passenger" depart="99.07" departLane="best" departSpeed="max" from="26702781#0" to="-26788755#1"/>
    <trip id="veh176" type="veh_passenger" depart="99.63" departLane="best" from="-26790555#2" to="-185271782#0"/>
    <!-- <trip id="type0" type="emergency" depart="100" departLane="best" departSpeed="max" from="-190640003#0" to="192402866#1"/> -->
    <trip id="veh177" type="veh_passenger" depart="100.20" departLane="best" from="-30281025" to="192332013#5"/>
    <trip id="veh178" type="veh_passenger" depart="100.77" departLane="best" departSpeed="max" from="30018078#0" to="-192332023#1"/>
    <trip id="veh179" type="veh_passenger" depart="101.33" departLane="best" departSpeed="max" from="184899633#0" to="26783033"/>
    <trip id="veh180" type="veh_passenger" depart="101.90" departLane="best" from="192251292#1" to="-26788967#1"/>
    <trip id="veh181" type="veh_passenger" depart="102.46" departLane="best" departSpeed="max" from="26702780#0" to="-184899633#0"/>
    <trip id="veh182" type="veh_passenger" depart="103.03" departLane="best" from="26788969" to="30281028#3"/>
    <trip id="veh183" type="veh_passenger" depart="103.60" departLane="best" from="-23584842#1" to="191223392#5"/>
    <trip id="veh184" type="veh_passenger" depart="104.16" departLane="best" departSpeed="max" from="-26789044#2" to="620360242"/>
    <trip id="veh185" type="veh_passenger" depart="104.73" departLane="best" departSpeed="max" from="-30281028#3" to="390239911#1"/>
    <trip id="veh186" type="veh_passenger" depart="105.29" departLane="best" departSpeed="max" from="191555574" to="30281099#3"/>
    <trip id="veh187" type="veh_passenger" depart="105.86" departLane="best" departSpeed="max" from="26702780#0" to="681852369"/>
    <trip id="veh188" type="veh_passenger" depart="106.43" departLane="best" from="23584842#0" to="620348237#2"/>
    <trip id="veh189" type="veh_passenger" depart="106.99" departLane="best" departSpeed="max" from="26788683" to="192332023#1"/>
    <trip id="veh190" type="veh_passenger" depart="107.56" departLane="best" departSpeed="max" from="29995566#0" to="192582821#1"/>
    <trip id="veh191" type="veh_passenger" depart="108.12" departLane="best" departSpeed="max" from="390020634" to="30001419#3"/>
    <trip id="veh192" type="veh_passenger" depart="108.69" departLane="best" departSpeed="max" from="191555574" to="-29995187#3"/>
    <trip id="veh193" type="veh_passenger" depart="109.26" departLane="best" from="-30281028#2" to="26788685#0"/>
    <trip id="veh194" type="veh_passenger" depart="109.82" departLane="best" departSpeed="max" from="26789046#0" to="192402867#1"/>
    <trip id="veh195" type="veh_passenger" depart="110.39" departLane="best" departSpeed="max" from="23814219#0" to="-29995566#1"/>
    <trip id="veh196" type="veh_passenger" depart="110.95" departLane="best" from="-192582821#0" to="-30018078#1"/>
    <trip id="veh197" type="veh_passenger" depart="111.52" departLane="best" from="192402866#2" to="-23814219#0"/>
    <trip id="veh198" type="veh_passenger" depart="112.09" departLane="best" departSpeed="max" from="-30001419#3" to="26790546"/>
    <trip id="veh199" type="veh_passenger" depart="112.65" departLane="best" departSpeed="max" from="26783036" to="-192332015#3"/>
    <trip id="veh200" type="veh_passenger" depart="113.22" departLane="best" from="184720392#0" to="192582821#1"/>
    <trip id="veh201" type="veh_passenger" depart="113.79" departLane="best" departSpeed="max" from="184899633#0" to="483248307#1"/>
    <trip id="veh202" type="veh_passenger" depart="114.35" departLane="best" departSpeed="max" from="-681852368#1" to="-184899633#0"/>
    <trip id="veh203" type="veh_passenger" depart="114.92" departLane="best" departSpeed="max" from="-475542980#1" to="30002872"/>
    <trip id="veh204" type="veh_passenger" depart="115.48" departLane="best" from="30280177#3" to="620348242#1"/>
    <trip id="veh205" type="veh_passenger" depart="116.05" departLane="best" departSpeed="max" from="184899633#0" to="30001419#3"/>
    <trip id="veh206" type="veh_passenger" depart="116.62" departLane="best" from="-29995454#2" to="-26783036"/>
    <trip id="veh207" type="veh_passenger" depart="117.18" departLane="best" departSpeed="max" from="-451455823#3" to="26789044#2"/>
    <trip id="veh208" type="veh_passenger" depart="117.75" departLane="best" departSpeed="max" from="-681852369" to="-25901179#0"/>
    <trip id="veh212" type="veh_passenger" depart="120.01" departLane="best" departSpeed="max" from="-192332013#6" to="150203420"/>
    <trip id="veh213" type="veh_passenger" depart="120.58" departLane="best" departSpeed="max" from="-29995187#4" to="-388181113#1"/>
    <trip id="veh214" type="veh_passenger" depart="121.14" departLane="best" departSpeed="max" from="26789046#0" to="150203420"/>
    <trip id="veh215" type="veh_passenger" depart="121.71" departLane="best" from="26788971#1" to="388181112#3"/>
    <trip id="veh216" type="veh_passenger" depart="122.28" departLane="best" departSpeed="max" from="-30281028#3" to="-192582832#2"/>
    <trip id="veh217" type="veh_passenger" depart="122.84" departLane="best" departSpeed="max" from="-190640003#2" to="192582821#1"/>
    <trip id="veh218" type="veh_passenger" depart="123.41" departLane="best" from="685351475" to="-620362112#0"/>
    <trip id="veh219" type="veh_passenger" depart="123.98" departLane="best" departSpeed="max" from="25901179#0" to="30281029"/>
    <trip id="veh220" type="veh_passenger" depart="124.54" departLane="best" departSpeed="max" from="25901179#0" to="30014767"/>
    <trip id="veh222" type="veh_passenger" depart="125.67" departLane="best" from="-191223392#1" to="-23854506#2"/>
    <trip id="veh223" type="veh_passenger" depart="126.24" departLane="best" departSpeed="max" from="-26783033" to="26789044#2"/>
    <trip id="veh224" type="veh_passenger" depart="126.81" departLane="best" from="192582832#0" to="-26783036"/>
    <trip id="veh225" type="veh_passenger" depart="127.37" departLane="best" departSpeed="max" from="26783036" to="30281028#3"/>
    <trip id="veh226" type="veh_passenger" depart="127.94" departLane="best" departSpeed="max" from="-26789044#2" to="24830978#1"/>
    <trip id="veh227" type="veh_passenger" depart="128.50" departLane="best" from="26788967#1" to="-23584855#1"/>
    <trip id="veh228" type="veh_passenger" depart="129.07" departLane="best" departSpeed="max" from="29995566#0" to="620431735#2"/>
    <trip id="veh229" type="veh_passenger" depart="129.64" departLane="best" from="-23584842#4" to="-185271782#0"/>
    <trip id="veh230" type="veh_passenger" depart="130.20" departLane="best" departSpeed="max" from="-388181112#3" to="26789044#2"/>
    <trip id="veh231" type="veh_passenger" depart="130.77" departLane="best" departSpeed="max" from="620348237#0" to="190640003#1"/>
    <trip id="veh232" type="veh_passenger" depart="131.33" departLane="best" departSpeed="max" from="26788683" to="-192402870"/>
    <trip id="veh233" type="veh_passenger" depart="131.90" departLane="best" from="26777960#1" to="26783033"/>
    <trip id="veh234" type="veh_passenger" depart="132.47" departLane="best" from="-23584816#9" to="30281028#3"/>
    <trip id="veh235" type="veh_passenger" depart="133.03" departLane="best" departSpeed="max" from="30018078#0" to="23814219#4"/>
    <trip id="veh236" type="veh_passenger" depart="133.60" departLane="best" from="-25901179#1" to="681852369"/>
    <trip id="veh238" type="veh_passenger" depart="134.73" departLane="best" departSpeed="max" from="185271782#0" to="-620362112#0"/>
    <trip id="veh239" type="veh_passenger" depart="135.30" departLane="best" from="192332012#4" to="-620348242#0"/>
    <trip id="veh240" type="veh_passenger" depart="135.86" departLane="best" departSpeed="max" from="30018078#0" to="388181112#3"/>
    <trip id="veh241" type="veh_passenger" depart="136.43" departLane="best" from="-23584818#4" to="620360243#2"/>
    <trip id="veh242" type="veh_passenger" depart="137.00" departLane="best" from="23854506#4" to="388181112#3"/>
    <trip id="veh243" type="veh_passenger" depart="137.56" departLane="best" departSpeed="max" from="26783036" to="191742018#1"/>
    <trip id="veh244" type="veh_passenger" depart="138.13" departLane="best" departSpeed="max" from="26788967#0" to="620431735#2"/>
    <trip id="veh245" type="veh_passenger" depart="138.69" departLane="best" from="192402865" to="192332013#6"/>
    <trip id="veh246" type="veh_passenger" depart="139.26" departLane="best" departSpeed="max" from="185271782#0" to="29995454#2"/>
    <trip id="veh247" type="veh_passenger" depart="139.83" departLane="best" departSpeed="max" from="-30281029" to="390239911#1"/>