<?xml version="1.0" encoding="UTF-8"?>

<!-- generated on 2021-10-24 18:01:49 by Eclipse SUMO polyconvert Version 1.9.2
<configuration xmlns:xsi="http://www.w3.org/2001/XMLSchema-instance" xsi:noNamespaceSchemaLocation="http://sumo.dlr.de/xsd/polyconvertConfiguration.xsd">

    <input>
        <net-file value="osm.net.xml"/>
        <osm-files value="osm_bbox.osm.xml"/>
        <osm.keep-full-type value="true"/>
        <type-file value="C:\Program%20Files%20(x86)\Eclipse\Sumo\data\typemap\osmPolyconvert.typ.xml"/>
    </input>

    <output>
        <output-file value="osm.poly.xml"/>
    </output>

    <processing>
        <poi-layer-offset value="5"/>
    </processing>

    <report>
        <verbose value="true"/>
    </report>

</configuration>
-->

<additional xmlns:xsi="http://www.w3.org/2001/XMLSchema-instance" xsi:noNamespaceSchemaLocation="http://sumo.dlr.de/xsd/additional_file.xsd">
    <location netOffset="-652211.04,-4944139.53" convBoundary="-131.39,-222.38,3014.42,2548.02" origBoundary="10.918170,44.632103,10.957028,44.657444" projParameter="+proj=utm +zone=32 +ellps=WGS84 +datum=WGS84 +units=m +no_defs"/>

    <poly id="108382272" type="building.hospital" color="255,230,230" fill="1" layer="-1.00" shape="1674.522018,195.287558 1676.625152,192.614587 1675.222890,191.514228 1684.355347,179.916990 1678.964136,175.698564 1700.944493,147.780015 1686.157196,136.224697 1676.762678,148.160245 1672.563527,144.870466 1680.811947,134.408078 1677.165872,131.553809 1668.884143,142.082095 1661.124299,136.017895 1669.749454,125.064311 1661.537761,118.644810 1652.847311,129.674652 1645.975498,124.309583 1654.805270,113.094103 1647.076575,107.052892 1593.909925,174.597153 1608.666086,186.129288 1608.289616,186.609365 1616.563661,193.074741 1617.013628,192.507498 1624.570924,198.411227 1624.137083,198.967738 1628.001253,201.993884 1628.468140,201.382587 1632.963379,204.901672 1617.971708,223.950702 1621.399640,226.633033 1616.678176,232.622500 1621.609886,236.474280 1626.331616,230.473709 1632.478667,235.276911 1666.913737,191.527636 1669.266705,193.361943 1667.581028,195.500246 1671.102547,198.251517 1673.852084,194.760350 1674.522018,195.287558"/>
    <poly id="117222384" type="amenity.theatre" color="237,199,199" fill="1" layer="-1.00" shape="964.686950,1048.274083 957.780772,1035.340022 953.690553,1037.510427 941.101189,1013.938647 945.914624,1011.385253 939.365299,999.126533 907.519746,1016.010553 933.815136,1065.258843 942.236333,1060.801459 941.978022,1060.317421 964.686950,1048.274083"/>
    <poly id="117222384#1" type="building.yes" color="255,230,230" fill="1" layer="-1.00" shape="964.686950,1048.274083 957.780772,1035.340022 953.690553,1037.510427 941.101189,1013.938647 945.914624,1011.385253 939.365299,999.126533 907.519746,1016.010553 933.815136,1065.258843 942.236333,1060.801459 941.978022,1060.317421 964.686950,1048.274083"/>
    <poly id="117222384#2" type="tourism.attraction" color="207,245,201" fill="1" layer="-2.00" shape="964.686950,1048.274083 957.780772,1035.340022 953.690553,1037.510427 941.101189,1013.938647 945.914624,1011.385253 939.365299,999.126533 907.519746,1016.010553 933.815136,1065.258843 942.236333,1060.801459 941.978022,1060.317421 964.686950,1048.274083"/>
    <poly id="119755811" type="building.public" color="255,230,230" fill="1" layer="-1.00" shape="765.554344,930.036166 773.363423,944.402887 785.636691,937.780257 777.827630,923.413520 765.554344,930.036166"/>
    <poly id="119755817" type="building.residential" color="255,230,230" fill="1" layer="-1.00" shape="785.168720,959.897843 790.394452,969.424273 806.600348,960.582988 801.374367,951.067652 785.168720,959.897843"/>
    <poly id="119755820" type="building.residential" color="255,230,230" fill="1" layer="-1.00" shape="776.691279,954.662391 770.202592,958.265467 771.981405,960.552664 775.418887,966.180081 777.229503,969.134894 779.811376,973.363883 782.546331,977.829898 784.349273,980.773417 821.324060,960.053526 808.466872,937.042529 789.539686,947.542121 783.067108,951.134451 779.063084,953.351464 781.398509,956.929988 779.117926,958.409789 776.691279,954.662391"/>
    <poly id="119755827" type="building.residential" color="255,230,230" fill="1" layer="-1.00" shape="798.895271,980.039642 802.797052,986.833958 819.100497,978.228415 815.291219,971.213992 798.895271,980.039642"/>
    <poly id="119826164" type="building.residential" color="255,230,230" fill="1" layer="-1.00" shape="761.761233,998.444101 757.460928,990.717889 758.788626,989.937963 759.778518,989.350101 766.553669,985.375909 767.597539,987.201138 769.841392,985.931637 768.774521,984.072520 775.372850,980.194181 779.682302,987.198189 780.777210,989.213572 764.177446,997.267592 761.761233,998.444101"/>
    <poly id="120197555" type="building.residential" color="255,230,230" fill="1" layer="-1.00" shape="809.065885,1073.963258 806.240884,1067.605657 812.988860,1064.442220 811.999437,1062.329298 807.097245,1064.613942 805.314587,1060.815089 815.375377,1056.140729 816.382765,1058.165162 817.382486,1060.178300 818.381942,1062.202546 819.381661,1064.215683 820.381116,1066.239929 821.380833,1068.253068 818.957756,1069.384935 815.692273,1070.908089 812.427054,1072.420137 809.065885,1073.963258"/>
    <poly id="120197888" type="building.residential" color="255,230,230" fill="1" layer="-1.00" shape="859.524301,1066.855598 864.425761,1064.937749 862.419621,1059.855436 856.865810,1062.180183 859.524301,1066.855598"/>
    <poly id="120197889" type="building.residential" color="255,230,230" fill="1" layer="-1.00" shape="853.150934,1056.879578 849.931439,1058.470491 841.854953,1062.447124 835.994056,1065.342563 830.446390,1068.078709 829.242123,1068.672598 830.432466,1071.012568 831.622809,1073.352538 832.813150,1075.692508 834.003491,1078.032478 835.185900,1080.372260 836.376239,1082.712231 840.995084,1080.665416 847.779034,1077.658467 846.076535,1074.161588 847.914657,1073.271509 845.705292,1068.728993 850.426679,1066.373410 848.957691,1063.737865 854.987499,1060.746408 853.150934,1056.879578"/>
    <poly id="120199035" type="building.residential" color="255,230,230" fill="1" layer="-1.00" shape="833.366599,1006.407630 835.625986,1011.184726 839.284824,1009.470836 837.033369,1004.693926 833.366599,1006.407630"/>
    <poly id="120199037" type="building.residential" color="255,230,230" fill="1" layer="-1.00" shape="846.713208,1048.280222 849.493716,1054.169986 826.994224,1064.751580 825.672969,1061.908366 824.351712,1059.065153 823.038122,1056.233235 821.716863,1053.390022 832.217564,1048.903932 833.440198,1051.555868 834.868094,1050.900588 836.020103,1053.184079 837.882809,1052.261236 836.708588,1049.910533 841.513798,1047.701414 842.537080,1050.059659 846.713208,1048.280222"/>
    <poly id="120199039" type="building.residential" color="255,230,230" fill="1" layer="-1.00" shape="839.306533,1032.011255 853.966963,1025.100738 859.656934,1036.460981 852.671258,1039.607628 850.999078,1035.500177 848.627774,1036.455430 850.329309,1040.663605 842.990502,1043.979730 835.247035,1047.630827 832.839315,1042.416758 834.764677,1041.528740 837.693688,1040.142114 837.996433,1040.760572 842.532283,1038.533962 839.306533,1032.011255"/>
    <poly id="120199040" type="building.residential" color="255,230,230" fill="1" layer="-1.00" shape="830.913889,998.736226 830.234653,997.597595 828.404969,998.465650 829.689479,1001.185736 832.971387,999.640747 832.308760,998.135735 830.913889,998.736226"/>
    <poly id="120199041" type="building.residential" color="255,230,230" fill="1" layer="-1.00" shape="832.839315,1042.416758 834.764677,1041.528740 833.602065,1039.022712 834.196008,1038.736688 832.013567,1034.061442 826.879264,1036.429492 825.202371,1037.212250 823.710241,1037.899355 824.133561,1038.787411 820.515446,1040.457816 816.568247,1042.287147 817.413835,1044.107691 818.221612,1045.849540 828.514518,1041.091779 829.790825,1043.822786 832.839315,1042.416758"/>
    <poly id="149631818" type="amenity.parking" color="184,184,179" fill="1" layer="-1.00" shape="2143.133607,343.921675 2140.856951,342.222382 2134.529613,350.640559 2151.253686,363.121251 2195.305310,350.135649 2195.314604,340.110637 2131.444565,205.956881 2104.219962,224.434978 2108.540384,228.950533 2099.007786,239.659616 2154.926062,284.096306 2160.716014,296.193696 2148.308727,312.302375 2160.103854,321.831222 2143.133607,343.921675"/>
    <poly id="149787067" type="amenity.parking" color="184,184,179" fill="1" layer="-1.00" shape="1661.636228,208.873874 1668.803249,199.830610 1665.679620,197.366669 1658.512601,206.409937 1661.636228,208.873874"/>
    <poly id="149788178" type="leisure.park" color="207,245,201" fill="1" layer="-2.00" shape="1816.386724,219.127353 1817.909819,218.485659 1819.211911,217.127378 1831.425020,178.829099 1831.783561,177.103792 1831.772240,175.247415 1831.284762,173.724240 1830.059128,172.539139 1827.797633,172.196283 1825.525287,172.308861 1816.953502,175.350056 1808.849140,178.758058 1798.214512,190.441608 1792.554444,203.177276 1813.116114,218.838262 1814.661657,219.252972 1816.386724,219.127353"/>
    <poly id="149788180" type="leisure.park" color="207,245,201" fill="1" layer="-2.00" shape="2023.668246,185.635167 2078.339081,230.508192 2098.078468,212.429287 2058.405551,173.248870 2058.884441,162.823842 2051.935973,158.690197 2044.520236,160.836182 2023.668246,185.635167"/>
    <poly id="150252318" type="building.yes" color="255,230,230" fill="1" layer="-1.00" shape="2144.975427,393.747255 2149.491901,404.669448 2171.114178,395.794039 2166.597732,384.871831 2144.975427,393.747255"/>
    <poly id="167113311" type="building.yes" color="255,230,230" fill="1" layer="-1.00" shape="1502.969452,475.468334 1509.115379,484.650473 1511.110346,487.520967 1513.503886,485.977409 1514.745069,485.173343 1513.057297,482.399068 1515.809840,480.441700 1510.498016,472.224112 1508.234010,473.659607 1507.602413,472.522035 1502.969452,475.468334"/>
    <poly id="167113333" type="building.yes" color="255,230,230" fill="1" layer="-1.00" shape="1785.454798,684.106877 1790.828454,693.370948 1796.590229,690.007171 1795.671627,688.262551 1797.723608,687.066622 1795.340249,683.186479 1793.292874,679.858948 1791.031373,676.192884 1786.967855,678.552367 1788.994345,682.090572 1785.454798,684.106877"/>
    <poly id="167113354" type="building.yes" color="255,230,230" fill="1" layer="-1.00" shape="1544.723479,612.701578 1550.977074,622.686566 1560.989394,616.100480 1555.911447,608.066237 1559.367680,605.881111 1555.641168,600.079667 1548.317094,604.740225 1550.001376,607.325484 1545.397831,610.372479 1546.233230,611.614933 1544.723479,612.701578"/>
    <poly id="167113431" type="building.yes" color="255,230,230" fill="1" layer="-1.00" shape="1366.037444,488.718801 1373.577520,497.344861 1379.472651,492.038866 1378.832854,491.245659 1381.608059,488.666369 1375.679364,481.690169 1374.413628,482.860452 1373.379376,481.635527 1368.734904,485.737541 1368.972320,486.098842 1366.037444,488.718801"/>
    <poly id="167113499" type="building.yes" color="255,230,230" fill="1" layer="-1.00" shape="1074.528026,674.489976 1086.424216,688.153769 1090.408324,684.780568 1091.723094,686.223272 1097.248556,681.430647 1091.933670,675.336188 1095.212770,672.246358 1088.585236,664.953764 1079.743389,672.735318 1078.227683,671.065565 1074.528026,674.489976"/>
    <poly id="167113511" type="building.yes" color="255,230,230" fill="1" layer="-1.00" shape="1231.514346,304.549155 1239.783808,318.905135 1247.437107,314.418756 1243.559380,307.613634 1241.188198,303.200520 1249.023933,298.718472 1246.167058,293.704766 1245.696943,292.782228 1242.150499,294.754210 1243.820994,297.594681 1231.514346,304.549155"/>
    <poly id="167113518" type="building.yes" color="255,230,230" fill="1" layer="-1.00" shape="1383.456055,926.872883 1395.563639,947.955629 1415.446946,936.335702 1420.077447,933.811645 1415.117814,927.147388 1400.470958,907.404674 1397.060935,909.657660 1390.843600,913.844529 1393.735957,917.347609 1395.602081,919.959380 1383.456055,926.872883"/>
    <poly id="167113529" type="building.yes" color="255,230,230" fill="1" layer="-1.00" shape="1712.953601,1068.850774 1721.364735,1082.832970 1728.902803,1078.500039 1727.885386,1076.575241 1733.317159,1073.392510 1734.342248,1074.995173 1743.028386,1070.100537 1737.267761,1060.438266 1739.495143,1059.202044 1736.808978,1054.714524 1712.953601,1068.850774"/>
    <poly id="167113625" type="building.yes" color="255,230,230" fill="1" layer="-1.00" shape="1429.562058,220.859917 1437.444493,229.449714 1437.040272,229.762425 1441.111820,234.082654 1447.970596,227.977147 1447.551017,227.600401 1450.897665,224.690170 1443.292573,216.118062 1442.521938,216.822182 1438.692291,212.674418 1429.562058,220.859917"/>
    <poly id="167113707" type="building.yes" color="255,230,230" fill="1" layer="-1.00" shape="1382.324732,520.626142 1384.581807,525.492297 1385.022231,525.324931 1390.181942,534.939211 1397.001871,531.455738 1397.956550,533.023322 1403.652429,530.091094 1397.971854,518.352693 1392.832176,520.920252 1390.595480,516.532497 1382.324732,520.626142"/>
    <poly id="167113736" type="building.yes" color="255,230,230" fill="1" layer="-1.00" shape="978.106726,1009.347304 991.529335,1034.583837 1009.424731,1025.105122 1005.623585,1017.757336 998.103647,1021.680287 993.148712,1012.460177 999.474663,1009.031294 998.721419,1007.668602 999.855921,1007.006403 996.017765,999.880035 978.106726,1009.347304"/>
    <poly id="167113751" type="building.yes" color="255,230,230" fill="1" layer="-1.00" shape="1225.664273,849.236962 1232.036357,860.924947 1244.987001,853.874662 1238.572906,842.285697 1237.212603,843.098098 1236.094278,841.070962 1233.411908,841.085087 1226.328592,844.984809 1225.928495,847.131502 1226.800408,848.508153 1225.664273,849.236962"/>
    <poly id="167113765" type="amenity.place_of_worship" color="237,199,199" fill="1" layer="-1.00" shape="2228.861555,387.170285 2230.946496,391.910392 2232.207837,394.585764 2238.975480,391.657623 2249.518532,386.819087 2251.950859,385.654610 2251.208406,383.847444 2252.480165,382.432950 2250.212054,377.388370 2247.018835,378.845873 2228.861555,387.170285"/>
    <poly id="167113765#1" type="building.yes" color="255,230,230" fill="1" layer="-1.00" shape="2228.861555,387.170285 2230.946496,391.910392 2232.207837,394.585764 2238.975480,391.657623 2249.518532,386.819087 2251.950859,385.654610 2251.208406,383.847444 2252.480165,382.432950 2250.212054,377.388370 2247.018835,378.845873 2228.861555,387.170285"/>
    <poly id="167113780" type="building.yes" color="255,230,230" fill="1" layer="-1.00" shape="1282.067678,727.873262 1285.668211,732.971344 1286.142961,732.360211 1288.956699,736.172573 1286.030931,738.414890 1289.307071,743.138496 1294.367175,739.568680 1292.669099,737.227679 1297.251803,734.046647 1289.319228,722.910608 1282.067678,727.873262"/>
    <poly id="167113852" type="building.yes" color="255,230,230" fill="1" layer="-1.00" shape="1141.093402,303.292900 1159.130355,318.380606 1165.392507,310.982511 1159.157122,305.544150 1158.505761,306.240017 1151.716736,300.388414 1152.535944,299.307525 1147.303638,294.737663 1143.738363,298.843208 1144.436889,299.504410 1141.093402,303.292900"/>
    <poly id="167113870" type="building.yes" color="255,230,230" fill="1" layer="-1.00" shape="1092.896235,247.567239 1094.724525,249.111030 1099.685633,253.407669 1102.542144,255.764964 1105.658463,251.181948 1099.149969,246.881953 1099.457123,246.311290 1097.527074,245.042944 1097.693865,244.702354 1095.728138,243.599878 1092.896235,247.567239"/>
    <poly id="167113928" type="building.yes" color="255,230,230" fill="1" layer="-1.00" shape="2112.816940,564.419857 2117.307226,570.784485 2119.808766,569.043664 2117.567988,565.844781 2121.994214,562.593885 2119.012510,558.188068 2121.244114,556.785350 2120.056986,554.989813 2115.445187,558.036219 2117.521542,561.142261 2112.816940,564.419857"/>
    <poly id="167113968" type="building.yes" color="255,230,230" fill="1" layer="-1.00" shape="1021.177200,299.293726 1030.957650,304.493658 1028.736284,308.820061 1028.490482,309.481096 1032.562010,311.467043 1032.984765,311.710465 1036.184111,305.295518 1035.738352,305.018207 1037.928526,300.668839 1024.072059,293.671790 1021.177200,299.293726"/>
    <poly id="167113998" type="building.yes" color="255,230,230" fill="1" layer="-1.00" shape="1535.454819,521.620913 1540.422620,529.285739 1541.904633,528.365148 1542.596495,529.637530 1538.736549,532.113154 1541.130159,535.571088 1550.734689,529.453201 1542.947382,517.553408 1538.634843,520.373929 1538.163471,519.840342 1535.454819,521.620913"/>
    <poly id="167114007" type="building.yes" color="255,230,230" fill="1" layer="-1.00" shape="803.559337,682.774636 812.224873,698.851041 825.188563,691.911377 823.659705,689.118826 819.755292,681.757615 823.265200,679.973496 822.176598,678.024944 826.149079,675.807204 824.046671,671.767382 820.196305,673.854643 803.559337,682.774636"/>
    <poly id="167114032" type="building.yes" color="255,230,230" fill="1" layer="-1.00" shape="2075.163946,977.978902 2077.405769,983.122832 2078.205703,982.852951 2080.152554,987.389661 2101.778380,978.614225 2095.901697,964.191858 2091.669887,965.958064 2091.197583,964.802000 2085.215730,967.415590 2087.510651,972.994256 2075.163946,977.978902"/>
    <poly id="167114037" type="building.yes" color="255,230,230" fill="1" layer="-1.00" shape="1894.347507,1117.908656 1896.111528,1122.129744 1913.159850,1112.955596 1911.929844,1107.969225 1910.547604,1102.379045 1909.209563,1095.600674 1908.156756,1094.164036 1903.455922,1094.974448 1907.056579,1110.687206 1895.979606,1116.680523 1894.347507,1117.908656"/>
    <poly id="167114045" type="building.yes" color="255,230,230" fill="1" layer="-1.00" shape="1195.367367,359.396559 1199.909021,367.317729 1200.730649,366.803736 1201.886361,368.931777 1204.655789,367.263654 1203.443505,365.178728 1205.271285,364.066207 1206.604908,366.053983 1210.453717,363.711271 1204.743420,353.872919 1195.367367,359.396559"/>
    <poly id="167114063" type="building.yes" color="255,230,230" fill="1" layer="-1.00" shape="1963.279945,847.637678 1965.800307,852.087996 1964.921040,852.689433 1966.672207,855.787672 1966.885519,856.159537 1977.519941,850.111306 1977.321960,849.762035 1972.251095,841.127419 1964.006749,845.776673 1964.457678,846.832185 1963.279945,847.637678"/>
    <poly id="167114071" type="building.yes" color="255,230,230" fill="1" layer="-1.00" shape="1623.665632,799.034415 1630.007201,809.643998 1631.486787,808.823402 1631.870098,809.388245 1640.626284,804.228382 1638.203494,800.002813 1638.735903,799.637595 1637.066780,796.752579 1636.510579,797.117232 1634.085140,793.002746 1623.665632,799.034415"/>
    <poly id="167114073" type="building.yes" color="255,230,230" fill="1" layer="-1.00" shape="1562.542206,873.058021 1566.029303,879.242787 1568.038393,882.847194 1571.267204,888.214468 1571.867805,887.984240 1572.795949,889.662368 1584.680819,882.731879 1582.396547,878.687458 1576.791464,868.806765 1574.986720,865.618450 1562.542206,873.058021"/>
    <poly id="167114094" type="building.yes" color="255,230,230" fill="1" layer="-1.00" shape="2004.040297,863.358852 2008.507096,871.367790 2008.144392,871.603655 2010.535460,875.817504 2015.457585,873.056299 2021.246019,869.904534 2019.313561,866.424062 2020.253890,865.924119 2015.158264,856.999898 2009.292882,860.383237 2004.040297,863.358852"/>
    <poly id="167114095" type="building.yes" color="255,230,230" fill="1" layer="-1.00" shape="1280.372678,812.958074 1286.178682,823.754636 1288.573645,822.477782 1291.702553,828.387135 1297.279435,825.440887 1294.151058,819.509315 1296.553955,818.232652 1292.813021,811.364039 1291.776787,811.895151 1289.467198,807.905814 1280.372678,812.958074"/>
    <poly id="167114101" type="building.yes" color="255,230,230" fill="1" layer="-1.00" shape="1144.530284,198.210333 1149.851630,201.037346 1154.782203,203.610577 1156.353950,200.580297 1156.712467,200.855546 1160.313532,193.905579 1155.333759,191.064432 1149.809352,188.099226 1146.045427,194.889735 1146.323050,195.229751 1144.530284,198.210333"/>
    <poly id="167114144" type="building.yes" color="255,230,230" fill="1" layer="-1.00" shape="1259.129427,412.236040 1263.148792,419.422428 1262.309721,420.002685 1264.057128,423.278451 1264.956746,422.821890 1266.936808,426.325467 1276.276099,421.012232 1270.343582,410.512789 1271.424015,409.793776 1269.320481,406.142779 1259.129427,412.236040"/>
    <poly id="167114152" type="building.yes" color="255,230,230" fill="1" layer="-1.00" shape="1218.450496,475.822765 1223.906048,485.355003 1228.182278,483.055792 1228.793292,484.059474 1234.680507,480.753752 1228.884153,470.535438 1230.106539,469.853132 1228.221666,466.685256 1220.980944,470.848010 1222.344988,473.558947 1218.450496,475.822765"/>
    <poly id="167114200" type="building.yes" color="255,230,230" fill="1" layer="-1.00" shape="1545.450099,741.623707 1546.100695,742.961796 1548.657791,741.544403 1549.865132,743.829345 1548.896557,745.851357 1547.740537,746.412923 1549.784849,750.540536 1562.208694,743.645046 1558.256489,735.659803 1549.806394,739.626703 1545.450099,741.623707"/>
    <poly id="167114216" type="building.yes" color="255,230,230" fill="1" layer="-1.00" shape="1817.606684,635.558185 1824.280130,647.220627 1841.846137,637.013822 1836.651192,628.243002 1825.574007,634.881102 1823.782259,631.815284 1824.533059,631.277453 1822.420655,627.681618 1818.938692,629.943795 1821.018845,633.561090 1817.606684,635.558185"/>
    <poly id="167114230" type="building.yes" color="255,230,230" fill="1" layer="-1.00" shape="865.199499,491.100004 868.793026,497.853701 871.943521,496.172237 873.925869,499.586825 870.534816,501.373735 874.380584,508.533525 882.949438,504.235133 882.752664,503.496926 889.751581,500.150541 881.121180,482.585551 865.199499,491.100004"/>
    <poly id="167114241" type="building.yes" color="255,230,230" fill="1" layer="-1.00" shape="1284.725798,309.446687 1286.834917,313.197849 1286.710675,313.417187 1289.803354,318.858858 1301.551431,312.035717 1295.296300,301.417452 1286.268517,306.638035 1286.998245,307.655654 1286.602759,307.935238 1286.737873,308.260763 1284.725798,309.446687"/>
    <poly id="167114256" type="building.yes" color="255,230,230" fill="1" layer="-1.00" shape="1640.487951,911.056841 1645.911294,920.233062 1644.627350,920.836023 1651.915110,933.024177 1663.753470,926.048268 1659.030677,917.444428 1658.250314,918.226089 1655.864063,914.134753 1656.707603,913.699142 1651.466405,904.538361 1640.487951,911.056841"/>
    <poly id="167114317" type="building.yes" color="255,230,230" fill="1" layer="-1.00" shape="1122.950590,221.394321 1127.513183,224.425608 1132.873962,227.931518 1137.186198,221.442982 1136.753138,221.299338 1138.970997,218.128778 1133.887545,214.640555 1129.626892,211.927627 1127.648293,215.048293 1127.311989,214.840258 1122.950590,221.394321"/>
    <poly id="167114328" type="building.yes" color="255,230,230" fill="1" layer="-1.00" shape="1244.843689,328.061218 1250.298816,337.615691 1254.458029,335.235915 1255.345348,336.635160 1263.296310,331.978036 1258.815801,324.491732 1259.355628,324.148886 1257.212927,320.474737 1248.739310,325.419551 1248.897427,325.778964 1244.843689,328.061218"/>
    <poly id="167114345" type="building.yes" color="255,230,230" fill="1" layer="-1.00" shape="1472.775433,1084.230779 1479.782163,1088.887602 1478.471585,1090.279083 1488.005346,1106.454956 1503.296532,1097.404687 1498.082262,1088.778163 1492.203891,1092.061610 1487.215887,1083.929510 1491.427564,1079.328268 1483.746451,1072.332486 1472.775433,1084.230779"/>
    <poly id="167114419" type="building.yes" color="255,230,230" fill="1" layer="-1.00" shape="1117.454546,554.172466 1118.427229,555.318087 1118.124301,555.711019 1124.056351,562.553682 1124.837213,561.749741 1127.762657,565.209012 1135.848158,558.209808 1125.377371,546.002382 1120.531938,550.222056 1121.095876,550.868951 1117.454546,554.172466"/>
    <poly id="167114421" type="building.yes" color="255,230,230" fill="1" layer="-1.00" shape="1081.248454,833.462516 1083.738425,837.211536 1082.719946,837.998731 1085.210967,841.703319 1086.333597,840.874136 1087.849049,843.221864 1099.432287,835.605376 1099.883775,835.304882 1104.369565,832.188108 1097.791165,822.162524 1081.248454,833.462516"/>
    <poly id="167114442" type="building.yes" color="255,230,230" fill="1" layer="-1.00" shape="1553.087945,819.506193 1564.128541,838.730009 1566.855900,843.496286 1570.743967,841.165842 1573.222254,839.724356 1571.097629,835.972713 1570.526357,834.969939 1560.664009,817.585789 1559.552387,815.614324 1555.222314,818.178778 1553.087945,819.506193"/>
    <poly id="167114456" type="building.yes" color="255,230,230" fill="1" layer="-1.00" shape="1869.962941,959.179992 1872.906766,964.507294 1875.266145,969.053770 1886.227311,962.601955 1883.724115,958.429938 1880.863573,952.937900 1878.333976,954.200215 1877.753772,953.241656 1875.868395,954.441529 1876.342591,955.519819 1869.962941,959.179992"/>
    <poly id="167114466" type="building.yes" color="255,230,230" fill="1" layer="-1.00" shape="791.741940,378.417746 808.578762,408.358142 819.156146,402.351137 811.266632,388.338155 815.419854,386.202479 818.902526,385.240167 813.630512,375.301418 811.669469,375.677346 805.723988,379.104324 802.260681,372.542696 791.741940,378.417746"/>
    <poly id="167114473" type="building.yes" color="255,230,230" fill="1" layer="-1.00" shape="1011.821989,316.666021 1019.371521,320.568257 1023.590123,312.665910 1024.234161,312.947920 1025.769095,310.127912 1024.969592,309.708845 1026.139757,307.547053 1028.736284,308.820061 1030.957650,304.493658 1021.177200,299.293726 1011.821989,316.666021"/>
    <poly id="167114519" type="building.yes" color="255,230,230" fill="1" layer="-1.00" shape="953.859786,920.869227 955.297310,923.492935 958.307503,929.399303 963.431608,926.797709 964.451379,928.633516 963.773114,929.128703 967.668971,936.167500 978.802167,930.451815 969.380667,912.823449 965.126988,914.856605 953.859786,920.869227"/>
    <poly id="167114542" type="building.yes" color="255,230,230" fill="1" layer="-1.00" shape="1148.718212,286.957821 1150.491723,288.133556 1149.248234,289.704527 1163.414816,301.688442 1165.248038,299.008913 1163.957283,297.889084 1165.041359,296.347677 1156.330576,290.217076 1161.351500,282.622817 1154.872664,278.078950 1148.718212,286.957821"/>
    <poly id="167114550" type="building.yes" color="255,230,230" fill="1" layer="-1.00" shape="1057.973698,474.739164 1063.378720,478.379448 1060.577631,482.725437 1067.931647,487.501141 1072.934623,479.984198 1071.443245,478.959658 1073.737638,475.568608 1069.727246,473.017246 1070.419787,471.922231 1063.075265,467.080064 1057.973698,474.739164"/>
    <poly id="167114558" type="building.yes" color="255,230,230" fill="1" layer="-1.00" shape="932.800597,332.676682 936.597967,334.511587 936.149949,335.334550 942.298243,338.425499 944.526157,334.154796 943.624600,333.688864 950.351733,321.055617 951.192211,321.420073 954.346550,315.226310 944.565271,310.059819 932.800597,332.676682"/>
    <poly id="167114605" type="building.yes" color="255,230,230" fill="1" layer="-1.00" shape="1534.092496,931.554386 1539.576243,941.198753 1549.501914,935.566448 1544.027427,925.866719 1542.732393,926.602809 1541.777286,925.057416 1539.967837,926.403677 1537.537964,927.812982 1535.387500,928.484268 1535.983100,930.465685 1534.092496,931.554386"/>
    <poly id="167114612" type="building.yes" color="255,230,230" fill="1" layer="-1.00" shape="1522.099326,258.992452 1531.401573,268.605315 1537.654986,262.596649 1534.105154,259.366858 1538.768386,254.820822 1542.081872,258.311740 1546.664213,253.830471 1537.958938,244.809732 1528.727907,253.892965 1528.117449,253.200471 1522.099326,258.992452"/>
    <poly id="167114658" type="building.yes" color="255,230,230" fill="1" layer="-1.00" shape="982.486887,150.089203 1052.853826,187.256116 1058.721720,176.403123 991.278357,140.772520 991.827361,139.707437 990.424749,138.951769 987.561901,142.551668 985.291012,141.264167 982.934041,145.954146 984.330563,146.631868 982.486887,150.089203"/>
    <poly id="167114677" type="building.yes" color="255,230,230" fill="1" layer="-1.00" shape="1520.449903,530.255625 1526.766272,539.941987 1527.118679,540.472744 1525.893366,541.277185 1527.781771,544.289638 1541.130159,535.571088 1538.736549,532.113154 1535.478031,534.325224 1528.853947,524.564849 1523.761293,528.155949 1520.449903,530.255625"/>
    <poly id="167114683" type="building.yes" color="255,230,230" fill="1" layer="-1.00" shape="1168.605397,398.328732 1170.649231,401.822676 1170.955092,401.640988 1173.270737,405.719329 1185.478270,398.918005 1184.146469,396.519044 1186.519350,395.174936 1182.234973,387.782254 1175.001075,391.989682 1176.075083,393.882377 1168.605397,398.328732"/>
    <poly id="167114691" type="building.yes" color="255,230,230" fill="1" layer="-1.00" shape="1035.260482,267.929397 1039.789183,270.381872 1040.144677,269.445579 1049.504773,274.302143 1049.053577,275.258396 1052.983708,277.518862 1057.222978,269.416966 1058.036581,267.902472 1040.376258,258.336715 1038.189493,262.541677 1035.260482,267.929397"/>
    <poly id="167114699" type="building.yes" color="255,230,230" fill="1" layer="-1.00" shape="1628.517041,810.575488 1631.548901,815.549100 1634.148022,814.032711 1638.137623,820.440652 1648.843408,814.382477 1644.224657,806.403537 1633.762598,812.556436 1631.870098,809.388245 1631.486787,808.823402 1630.007201,809.643998 1628.517041,810.575488"/>